# generated using pymatgen
data_C
_symmetry_space_group_name_H-M   'P 1'
_cell_length_a   53.56000115
_cell_length_b   53.56000115
_cell_length_c   63.94731582
_cell_angle_alpha   90.00000000
_cell_angle_beta   90.00000000
_cell_angle_gamma   90.00000000
_symmetry_Int_Tables_number   1
_chemical_formula_structural   C
_chemical_formula_sum   C800
_cell_volume   183443.98455796
_cell_formula_units_Z   800
loop_
 _symmetry_equiv_pos_site_id
 _symmetry_equiv_pos_as_xyz
  1  'x, y, z'
loop_
 _atom_site_type_symbol
 _atom_site_label
 _atom_site_symmetry_multiplicity
 _atom_site_fract_x
 _atom_site_fract_y
 _atom_site_fract_z
 _atom_site_occupancy
  C  C0  1  0.62658701  0.50000000  0.00156379  1
  C  C1  1  0.62382078  0.52631892  0.00156379  1
  C  C2  1  0.62039140  0.53911754  0.02079456  1
  C  C3  1  0.60962757  0.56329351  0.02079456  1
  C  C4  1  0.60241104  0.57440598  0.00156379  1
  C  C5  1  0.58470324  0.59407248  0.04002533  1
  C  C6  1  0.57440598  0.60241104  0.02079456  1
  C  C7  1  0.55148758  0.61564299  0.02079456  1
  C  C8  1  0.53911754  0.62039140  0.00156379  1
  C  C9  1  0.51323195  0.62589356  0.04002533  1
  C  C10  1  0.50000000  0.62658701  0.02079456  1
  C  C11  1  0.47368108  0.62382078  0.02079456  1
  C  C12  1  0.46088246  0.62039140  0.00156379  1
  C  C13  1  0.43670649  0.60962757  0.04002533  1
  C  C14  1  0.42559402  0.60241104  0.02079456  1
  C  C15  1  0.40592752  0.58470324  0.02079456  1
  C  C16  1  0.39758896  0.57440598  0.00156379  1
  C  C17  1  0.38435701  0.55148758  0.04002533  1
  C  C18  1  0.37960860  0.53911754  0.02079456  1
  C  C19  1  0.37410644  0.51323195  0.02079456  1
  C  C20  1  0.37341299  0.50000000  0.00156379  1
  C  C21  1  0.37617922  0.47368108  0.04002533  1
  C  C22  1  0.37960860  0.46088246  0.02079456  1
  C  C23  1  0.39037243  0.43670649  0.02079456  1
  C  C24  1  0.39758896  0.42559402  0.00156379  1
  C  C25  1  0.41529676  0.40592752  0.04002533  1
  C  C26  1  0.42559402  0.39758896  0.02079456  1
  C  C27  1  0.44851242  0.38435701  0.02079456  1
  C  C28  1  0.46088246  0.37960860  0.00156379  1
  C  C29  1  0.48676805  0.37410644  0.04002533  1
  C  C30  1  0.50000000  0.37341299  0.02079456  1
  C  C31  1  0.52631892  0.37617922  0.02079456  1
  C  C32  1  0.53911754  0.37960860  0.00156379  1
  C  C33  1  0.56329351  0.39037243  0.04002533  1
  C  C34  1  0.57440598  0.39758896  0.02079456  1
  C  C35  1  0.59407248  0.41529676  0.02079456  1
  C  C36  1  0.60241104  0.42559402  0.00156379  1
  C  C37  1  0.61564299  0.44851242  0.04002533  1
  C  C38  1  0.62039140  0.46088246  0.02079456  1
  C  C39  1  0.62589356  0.48676805  0.02079456  1
  C  C40  1  0.62658701  0.50000000  0.04002533  1
  C  C41  1  0.62382078  0.52631892  0.04002533  1
  C  C42  1  0.61838651  0.53812810  0.06064065  1
  C  C43  1  0.60755362  0.56246587  0.06063892  1
  C  C44  1  0.60241104  0.57440598  0.04002533  1
  C  C45  1  0.58209436  0.59189557  0.08137247  1
  C  C46  1  0.57335997  0.60043850  0.06063754  1
  C  C47  1  0.55030778  0.61375843  0.06063501  1
  C  C48  1  0.53911754  0.62039140  0.04002533  1
  C  C49  1  0.51240442  0.62258858  0.08137843  1
  C  C50  1  0.50032494  0.62436734  0.06063189  1
  C  C51  1  0.47384150  0.62156354  0.06064090  1
  C  C52  1  0.46088246  0.62039140  0.04002533  1
  C  C53  1  0.43798902  0.60645865  0.08137686  1
  C  C54  1  0.42714414  0.60080452  0.06063126  1
  C  C55  1  0.40735988  0.58299155  0.06063739  1
  C  C56  1  0.39758896  0.57440598  0.04002533  1
  C  C57  1  0.38723715  0.54967792  0.08136838  1
  C  C58  1  0.38181363  0.53874272  0.06062724  1
  C  C59  1  0.37628487  0.51270908  0.06062308  1
  C  C60  1  0.37341299  0.50000000  0.04002533  1
  C  C61  1  0.37958683  0.47390873  0.08137477  1
  C  C62  1  0.38161611  0.46186223  0.06064159  1
  C  C63  1  0.39244672  0.43753525  0.06064089  1
  C  C64  1  0.39758896  0.42559402  0.04002533  1
  C  C65  1  0.41790353  0.40809310  0.08137442  1
  C  C66  1  0.42664912  0.39956488  0.06062865  1
  C  C67  1  0.44970633  0.38623845  0.06062143  1
  C  C68  1  0.46088246  0.37960860  0.04002533  1
  C  C69  1  0.48758564  0.37739694  0.08137125  1
  C  C70  1  0.49969486  0.37561880  0.06064631  1
  C  C71  1  0.52618074  0.37839573  0.06062796  1
  C  C72  1  0.53911754  0.37960860  0.04002533  1
  C  C73  1  0.56202243  0.39351918  0.08137900  1
  C  C74  1  0.57283678  0.39918248  0.06062674  1
  C  C75  1  0.59263529  0.41701144  0.06063964  1
  C  C76  1  0.60241104  0.42559402  0.04002533  1
  C  C77  1  0.61276533  0.45034913  0.08137115  1
  C  C78  1  0.61818754  0.46126715  0.06063279  1
  C  C79  1  0.62373458  0.48732164  0.06062514  1
  C  C80  1  0.62322882  0.49951612  0.08136010  1
  C  C81  1  0.62042945  0.52610344  0.08136787  1
  C  C82  1  0.61676804  0.53745147  0.10227721  1
  C  C83  1  0.60595988  0.56172894  0.10227487  1
  C  C84  1  0.59996842  0.57204158  0.08136419  1
  C  C85  1  0.58147526  0.59123153  0.12314314  1
  C  C86  1  0.57246285  0.59892134  0.10227623  1
  C  C87  1  0.54944828  0.61219455  0.10229881  1
  C  C88  1  0.53853240  0.61703403  0.08138383  1
  C  C89  1  0.51230052  0.62166144  0.12315839  1
  C  C90  1  0.50048846  0.62259902  0.10228402  1
  C  C91  1  0.47405385  0.61981412  0.10228735  1
  C  C92  1  0.46240573  0.61730719  0.08138510  1
  C  C93  1  0.43842624  0.60566887  0.12314472  1
  C  C94  1  0.42832053  0.59947853  0.10227211  1
  C  C95  1  0.40854515  0.58168462  0.10227791  1
  C  C96  1  0.40058553  0.57279899  0.08136562  1
  C  C97  1  0.38806588  0.54928067  0.12314680  1
  C  C98  1  0.38354761  0.53833598  0.10228902  1
  C  C99  1  0.37802975  0.51234264  0.10228652  1
  C  C100  1  0.37681864  0.50048081  0.08137591  1
  C  C101  1  0.38048423  0.47407425  0.12315589  1
  C  C102  1  0.38323951  0.46256742  0.10227862  1
  C  C103  1  0.39404611  0.43827626  0.10229561  1
  C  C104  1  0.40003073  0.42795365  0.08137888  1
  C  C105  1  0.41852834  0.40876263  0.12316221  1
  C  C106  1  0.42754169  0.40106688  0.10228763  1
  C  C107  1  0.45056991  0.38778420  0.10228886  1
  C  C108  1  0.46147122  0.38295437  0.08136239  1
  C  C109  1  0.48770603  0.37830054  0.12316197  1
  C  C110  1  0.49951777  0.37736950  0.10228887  1
  C  C111  1  0.52594751  0.38014947  0.10228381  1
  C  C112  1  0.53761332  0.38264300  0.08137291  1
  C  C113  1  0.56157765  0.39432280  0.12315647  1
  C  C114  1  0.57167273  0.40050987  0.10229004  1
  C  C115  1  0.59143969  0.41831409  0.10226685  1
  C  C116  1  0.59939872  0.42718848  0.08135896  1
  C  C117  1  0.61191414  0.45073102  0.12314942  1
  C  C118  1  0.61646174  0.46166965  0.10227477  1
  C  C119  1  0.62199658  0.48766382  0.10228192  1
  C  C120  1  0.62228743  0.49949760  0.12315901  1
  C  C121  1  0.61952650  0.52592707  0.12313937  1
  C  C122  1  0.61632290  0.53727088  0.14402593  1
  C  C123  1  0.60554082  0.56152263  0.14401968  1
  C  C124  1  0.59925867  0.57149185  0.12314657  1
  C  C125  1  0.58128540  0.59104749  0.16491878  1
  C  C126  1  0.57221230  0.59851021  0.14402132  1
  C  C127  1  0.54920507  0.61177482  0.14402895  1
  C  C128  1  0.53828021  0.61613892  0.12315488  1
  C  C129  1  0.51223461  0.62141233  0.16491516  1
  C  C130  1  0.50050744  0.62211959  0.14403206  1
  C  C131  1  0.47409968  0.61935620  0.14401535  1
  C  C132  1  0.46269831  0.61646558  0.12314869  1
  C  C133  1  0.43852513  0.60544576  0.16489389  1
  C  C134  1  0.42861484  0.59911012  0.14402394  1
  C  C135  1  0.40889326  0.58135506  0.14400640  1
  C  C136  1  0.40133584  0.57227998  0.12313968  1
  C  C137  1  0.38829902  0.54917723  0.16491311  1
  C  C138  1  0.38401633  0.53822413  0.14403192  1
  C  C139  1  0.37850904  0.51226768  0.14402583  1
  C  C140  1  0.37772747  0.50050085  0.12315430  1
  C  C141  1  0.38074147  0.47412217  0.16490999  1
  C  C142  1  0.38369572  0.46274186  0.14403220  1
  C  C143  1  0.39448760  0.43848351  0.14402795  1
  C  C144  1  0.40075277  0.42852103  0.12316089  1
  C  C145  1  0.41873080  0.40895142  0.16491730  1
  C  C146  1  0.42780615  0.40148662  0.14402350  1
  C  C147  1  0.45078938  0.38820226  0.14403010  1
  C  C148  1  0.46172689  0.38382661  0.12315420  1
  C  C149  1  0.48775674  0.37855079  0.16490322  1
  C  C150  1  0.49948172  0.37784709  0.14402783  1
  C  C151  1  0.52589179  0.38062588  0.14401388  1
  C  C152  1  0.53731640  0.38351826  0.12315667  1
  C  C153  1  0.56145768  0.39454792  0.16491954  1
  C  C154  1  0.57136982  0.40089626  0.14403928  1
  C  C155  1  0.59108581  0.41865519  0.14402974  1
  C  C156  1  0.59862513  0.42771987  0.12313285  1
  C  C157  1  0.61168986  0.45085111  0.16490902  1
  C  C158  1  0.61597620  0.46178157  0.14403024  1
  C  C159  1  0.62149364  0.48774192  0.14403124  1
  C  C160  1  0.62202390  0.49950245  0.16492162  1
  C  C161  1  0.61927064  0.52589444  0.16492063  1
  C  C162  1  0.61619680  0.53723447  0.18583285  1
  C  C163  1  0.60539841  0.56146528  0.18583118  1
  C  C164  1  0.59905333  0.57133733  0.16491526  1
  C  C165  1  0.58120459  0.59098267  0.20676133  1
  C  C166  1  0.57211702  0.59838909  0.18584294  1
  C  C167  1  0.54913054  0.61164041  0.18583790  1
  C  C168  1  0.53818843  0.61589756  0.16492918  1
  C  C169  1  0.51220667  0.62132676  0.20674237  1
  C  C170  1  0.50049851  0.62197452  0.18582856  1
  C  C171  1  0.47411714  0.61921601  0.18582954  1
  C  C172  1  0.46277557  0.61624177  0.16491053  1
  C  C173  1  0.43856354  0.60536705  0.20676148  1
  C  C174  1  0.42870041  0.59901157  0.18581431  1
  C  C175  1  0.40896948  0.58126469  0.18582219  1
  C  C176  1  0.40155117  0.57216576  0.16491848  1
  C  C177  1  0.38837156  0.54914815  0.20675020  1
  C  C178  1  0.38414438  0.53820656  0.18582811  1
  C  C179  1  0.37864761  0.51224988  0.18582209  1
  C  C180  1  0.37797915  0.50052187  0.16489983  1
  C  C181  1  0.38085245  0.47413534  0.20673548  1
  C  C182  1  0.38382752  0.46282377  0.18580719  1
  C  C183  1  0.39461557  0.43856700  0.18580339  1
  C  C184  1  0.40096840  0.42868256  0.16491107  1
  C  C185  1  0.41880246  0.40902987  0.20672522  1
  C  C186  1  0.42789940  0.40160497  0.18583599  1
  C  C187  1  0.45087707  0.38833461  0.18583278  1
  C  C188  1  0.46179730  0.38407384  0.16491038  1
  C  C189  1  0.48776561  0.37865477  0.20675654  1
  C  C190  1  0.49948533  0.37800032  0.18583027  1
  C  C191  1  0.52587077  0.38075991  0.18582317  1
  C  C192  1  0.53721745  0.38375313  0.16491660  1
  C  C193  1  0.56142765  0.39464071  0.20674973  1
  C  C194  1  0.57127147  0.40098410  0.18581553  1
  C  C195  1  0.59099425  0.41876984  0.18583349  1
  C  C196  1  0.59841517  0.42785378  0.16491180  1
  C  C197  1  0.61161615  0.45088204  0.20673127  1
  C  C198  1  0.61585089  0.46182204  0.18580214  1
  C  C199  1  0.62135548  0.48778500  0.18583344  1
  C  C200  1  0.62194004  0.49949835  0.20675149  1
  C  C201  1  0.61919411  0.52588403  0.20675225  1
  C  C202  1  0.61613614  0.53718872  0.22770183  1
  C  C203  1  0.60534269  0.56141683  0.22769554  1
  C  C204  1  0.59897549  0.57125821  0.20676296  1
  C  C205  1  0.58116434  0.59092921  0.24864203  1
  C  C206  1  0.57209277  0.59831352  0.22770542  1
  C  C207  1  0.54910117  0.61158122  0.22769298  1
  C  C208  1  0.53816538  0.61579562  0.20676409  1
  C  C209  1  0.51221197  0.62126017  0.24862779  1
  C  C210  1  0.50051837  0.62191904  0.22767245  1
  C  C211  1  0.47413427  0.61914206  0.22768832  1
  C  C212  1  0.46280039  0.61615443  0.20674645  1
  C  C213  1  0.43859169  0.60528981  0.24866762  1
  C  C214  1  0.42875046  0.59895407  0.22769447  1
  C  C215  1  0.40903122  0.58120980  0.22769813  1
  C  C216  1  0.40162710  0.57211871  0.20676124  1
  C  C217  1  0.38844575  0.54910101  0.24864681  1
  C  C218  1  0.38422151  0.53818192  0.22769535  1
  C  C219  1  0.37873829  0.51222348  0.22768400  1
  C  C220  1  0.37809846  0.50052749  0.20673681  1
  C  C221  1  0.38093150  0.47415007  0.24863634  1
  C  C222  1  0.38392447  0.46283529  0.22766747  1
  C  C223  1  0.39470118  0.43858697  0.22766896  1
  C  C224  1  0.40105337  0.42874157  0.20672456  1
  C  C225  1  0.41884384  0.40906238  0.24863855  1
  C  C226  1  0.42792424  0.40167944  0.22768329  1
  C  C227  1  0.45089304  0.38841921  0.22769688  1
  C  C228  1  0.46182246  0.38418259  0.20674993  1
  C  C229  1  0.48778411  0.37873265  0.24864776  1
  C  C230  1  0.49947242  0.37806388  0.22769312  1
  C  C231  1  0.52588220  0.38081877  0.22769669  1
  C  C232  1  0.53719181  0.38383108  0.20674438  1
  C  C233  1  0.56137470  0.39469691  0.24864590  1
  C  C234  1  0.57121414  0.40105824  0.22769715  1
  C  C235  1  0.59092928  0.41882253  0.22767789  1
  C  C236  1  0.59832367  0.42791992  0.20673305  1
  C  C237  1  0.61154514  0.45091117  0.24861014  1
  C  C238  1  0.61577685  0.46184219  0.22768320  1
  C  C239  1  0.62129092  0.48778483  0.22767620  1
  C  C240  1  0.62187648  0.49948389  0.24864000  1
  C  C241  1  0.61913730  0.52587188  0.24863793  1
  C  C242  1  0.61606110  0.53715533  0.26961173  1
  C  C243  1  0.60526021  0.56139351  0.26961240  1
  C  C244  1  0.59892860  0.57121883  0.24863855  1
  C  C245  1  0.58109064  0.59086020  0.29061031  1
  C  C246  1  0.57204296  0.59825369  0.26961491  1
  C  C247  1  0.54906153  0.61149805  0.26961356  1
  C  C248  1  0.53817078  0.61573337  0.24864437  1
  C  C249  1  0.51219738  0.62115182  0.29060330  1
  C  C250  1  0.50052247  0.62182551  0.26961424  1
  C  C251  1  0.47413648  0.61906470  0.26961236  1
  C  C252  1  0.46283307  0.61608449  0.24864487  1
  C  C253  1  0.43862374  0.60523463  0.29060425  1
  C  C254  1  0.42879363  0.59889315  0.26962942  1
  C  C255  1  0.40908420  0.58114222  0.26962323  1
  C  C256  1  0.40170662  0.57207327  0.24866266  1
  C  C257  1  0.38852757  0.54904149  0.29060824  1
  C  C258  1  0.38429740  0.53815299  0.26962967  1
  C  C259  1  0.37878572  0.51219654  0.26960747  1
  C  C260  1  0.37816065  0.50052201  0.24862400  1
  C  C261  1  0.38097473  0.47414456  0.29058872  1
  C  C262  1  0.38396597  0.46286053  0.26960511  1
  C  C263  1  0.39475059  0.43860943  0.26960236  1
  C  C264  1  0.40109580  0.42877814  0.24861682  1
  C  C265  1  0.41887915  0.40912296  0.29059206  1
  C  C266  1  0.42794478  0.40173002  0.26959809  1
  C  C267  1  0.45092965  0.38848077  0.26960997  1
  C  C268  1  0.46185041  0.38425413  0.24864729  1
  C  C269  1  0.48778842  0.37882596  0.29060270  1
  C  C270  1  0.49946953  0.37817081  0.26961908  1
  C  C271  1  0.52584138  0.38091837  0.26962920  1
  C  C272  1  0.53714887  0.38389818  0.24864953  1
  C  C273  1  0.56135892  0.39477071  0.29060194  1
  C  C274  1  0.57118251  0.40110881  0.26960851  1
  C  C275  1  0.59088181  0.41887355  0.26960242  1
  C  C276  1  0.59826420  0.42794646  0.24861276  1
  C  C277  1  0.61149722  0.45095213  0.29059799  1
  C  C278  1  0.61571348  0.46184236  0.26959698  1
  C  C279  1  0.62122069  0.48778590  0.26960262  1
  C  C280  1  0.62178700  0.49946395  0.29060004  1
  C  C281  1  0.61903121  0.52584336  0.29059912  1
  C  C282  1  0.61596410  0.53711483  0.31161774  1
  C  C283  1  0.60517717  0.56133944  0.31161744  1
  C  C284  1  0.59884299  0.57114627  0.29060102  1
  C  C285  1  0.58102837  0.59079487  0.33265519  1
  C  C286  1  0.57199872  0.59816545  0.31161821  1
  C  C287  1  0.54901443  0.61142787  0.31161441  1
  C  C288  1  0.53814272  0.61564923  0.29059576  1
  C  C289  1  0.51216668  0.62107415  0.33266338  1
  C  C290  1  0.50053562  0.62172931  0.31160790  1
  C  C291  1  0.47415589  0.61898105  0.31161721  1
  C  C292  1  0.46285558  0.61600979  0.29059569  1
  C  C293  1  0.43866837  0.60515657  0.33266115  1
  C  C294  1  0.42884795  0.59883082  0.31163416  1
  C  C295  1  0.40914908  0.58108796  0.31162102  1
  C  C296  1  0.40176939  0.57202207  0.29061680  1
  C  C297  1  0.38859585  0.54900650  0.33264983  1
  C  C298  1  0.38438235  0.53812920  0.31161123  1
  C  C299  1  0.37886016  0.51219508  0.31160402  1
  C  C300  1  0.37820587  0.50052818  0.29058980  1
  C  C301  1  0.38107837  0.47416272  0.33263985  1
  C  C302  1  0.38404696  0.46289132  0.31160833  1
  C  C303  1  0.39483784  0.43866024  0.31159602  1
  C  C304  1  0.40115071  0.42884059  0.29057995  1
  C  C305  1  0.41895884  0.40919957  0.33265307  1
  C  C306  1  0.42799423  0.40181458  0.31161541  1
  C  C307  1  0.45095539  0.38855800  0.31161655  1
  C  C308  1  0.46185153  0.38433446  0.29059985  1
  C  C309  1  0.48780716  0.37891608  0.33263736  1
  C  C310  1  0.49946287  0.37826218  0.31161055  1
  C  C311  1  0.52584006  0.38102242  0.31161158  1
  C  C312  1  0.53711405  0.38398246  0.29061049  1
  C  C313  1  0.56133357  0.39486044  0.33265143  1
  C  C314  1  0.57113098  0.40118260  0.31160925  1
  C  C315  1  0.59082111  0.41893948  0.31162194  1
  C  C316  1  0.59821492  0.42798878  0.29059049  1
  C  C317  1  0.61140929  0.45099147  0.33264842  1
  C  C318  1  0.61562824  0.46186261  0.31161021  1
  C  C319  1  0.62112786  0.48780389  0.31161246  1
  C  C320  1  0.62169286  0.49945178  0.33265693  1
  C  C321  1  0.61893942  0.52583518  0.33265211  1
  C  C322  1  0.61589298  0.53707595  0.35371350  1
  C  C323  1  0.60510706  0.56128891  0.35372349  1
  C  C324  1  0.59878867  0.57108665  0.33266790  1
  C  C325  1  0.58097378  0.59072517  0.37481891  1
  C  C326  1  0.57194015  0.59808177  0.35371956  1
  C  C327  1  0.54897679  0.61133581  0.35372310  1
  C  C328  1  0.53811314  0.61556341  0.33264640  1
  C  C329  1  0.51215976  0.62098259  0.37481236  1
  C  C330  1  0.50053051  0.62164100  0.35371056  1
  C  C331  1  0.47416222  0.61888379  0.35371759  1
  C  C332  1  0.46290311  0.61593007  0.33266229  1
  C  C333  1  0.43870529  0.60505886  0.37482312  1
  C  C334  1  0.42890431  0.59875514  0.35372518  1
  C  C335  1  0.40919919  0.58100619  0.35372566  1
  C  C336  1  0.40183577  0.57198009  0.33264916  1
  C  C337  1  0.38869962  0.54895454  0.37482548  1
  C  C338  1  0.38447716  0.53810029  0.35370783  1
  C  C339  1  0.37895913  0.51218443  0.35370256  1
  C  C340  1  0.37830025  0.50053502  0.33263709  1
  C  C341  1  0.38116871  0.47416599  0.37482655  1
  C  C342  1  0.38413423  0.46293275  0.35371538  1
  C  C343  1  0.39491251  0.43870208  0.35371584  1
  C  C344  1  0.40122287  0.42891366  0.33263937  1
  C  C345  1  0.41903151  0.40927107  0.37481613  1
  C  C346  1  0.42803631  0.40190151  0.35371841  1
  C  C347  1  0.45100852  0.38864129  0.35372134  1
  C  C348  1  0.46187750  0.38441724  0.33264932  1
  C  C349  1  0.48781603  0.37901824  0.37481068  1
  C  C350  1  0.49943771  0.37834614  0.35371029  1
  C  C351  1  0.52581011  0.38110263  0.35370730  1
  C  C352  1  0.53709085  0.38407024  0.33264566  1
  C  C353  1  0.56126522  0.39496684  0.37480102  1
  C  C354  1  0.57107274  0.40126291  0.35371467  1
  C  C355  1  0.59077558  0.41899824  0.35371556  1
  C  C356  1  0.59814136  0.42803727  0.33264954  1
  C  C357  1  0.61131501  0.45103867  0.37481515  1
  C  C358  1  0.61553812  0.46188642  0.35371586  1
  C  C359  1  0.62104064  0.48781674  0.35372367  1
  C  C360  1  0.62159438  0.49943615  0.37482712  1
  C  C361  1  0.61885353  0.52581339  0.37481892  1
  C  C362  1  0.61579095  0.53703218  0.39594905  1
  C  C363  1  0.60501723  0.56124410  0.39594893  1
  C  C364  1  0.59872913  0.57102804  0.37482353  1
  C  C365  1  0.58087970  0.59063973  0.41710496  1
  C  C366  1  0.57188664  0.59798530  0.39594072  1
  C  C367  1  0.54892034  0.61122209  0.39594101  1
  C  C368  1  0.53809080  0.61545200  0.37481573  1
  C  C369  1  0.51213393  0.62085436  0.41709939  1
  C  C370  1  0.50054694  0.62152799  0.39594215  1
  C  C371  1  0.47418045  0.61875121  0.39593948  1
  C  C372  1  0.46293340  0.61582179  0.37481401  1
  C  C373  1  0.43877288  0.60492681  0.41712075  1
  C  C374  1  0.42898710  0.59867430  0.39595469  1
  C  C375  1  0.40929962  0.58092809  0.39594188  1
  C  C376  1  0.40193792  0.57193355  0.37482088  1
  C  C377  1  0.38881022  0.54889611  0.41711641  1
  C  C378  1  0.38458962  0.53807028  0.39594960  1
  C  C379  1  0.37907503  0.51216730  0.39593848  1
  C  C380  1  0.37839900  0.50057130  0.37480523  1
  C  C381  1  0.38128388  0.47418994  0.41710257  1
  C  C382  1  0.38423005  0.46296834  0.39593885  1
  C  C383  1  0.39500258  0.43875740  0.39594122  1
  C  C384  1  0.40128898  0.42897863  0.37481640  1
  C  C385  1  0.41914017  0.40935590  0.41710195  1
  C  C386  1  0.42811213  0.40200018  0.39593714  1
  C  C387  1  0.45108308  0.38873015  0.39593648  1
  C  C388  1  0.46190614  0.38451906  0.37481007  1
  C  C389  1  0.48783495  0.37912836  0.41711261  1
  C  C390  1  0.49942941  0.37846154  0.39594085  1
  C  C391  1  0.52580267  0.38122156  0.39593634  1
  C  C392  1  0.53702892  0.38416974  0.37480834  1
  C  C393  1  0.56120204  0.39507788  0.41710133  1
  C  C394  1  0.57097735  0.40134765  0.39593997  1
  C  C395  1  0.59067269  0.41907336  0.39594478  1
  C  C396  1  0.59805255  0.42807172  0.37482263  1
  C  C397  1  0.61117300  0.45110235  0.41711994  1
  C  C398  1  0.61540828  0.46190945  0.39595613  1
  C  C399  1  0.62091768  0.48783581  0.39595725  1
  C  C400  1  0.62147572  0.49944260  0.41711084  1
  C  C401  1  0.61871274  0.52579169  0.41711144  1
  C  C402  1  0.61563338  0.53697617  0.43829614  1
  C  C403  1  0.60488238  0.56118783  0.43829751  1
  C  C404  1  0.59862874  0.57095164  0.41710974  1
  C  C405  1  0.58077852  0.59055585  0.45948909  1
  C  C406  1  0.57182030  0.59787855  0.43829203  1
  C  C407  1  0.54886910  0.61112056  0.43829570  1
  C  C408  1  0.53807364  0.61533222  0.41710551  1
  C  C409  1  0.51211322  0.62071316  0.45948616  1
  C  C410  1  0.50056153  0.62139667  0.43828766  1
  C  C411  1  0.47420060  0.61862700  0.43829209  1
  C  C412  1  0.46298940  0.61568590  0.41710315  1
  C  C413  1  0.43884083  0.60480181  0.45949343  1
  C  C414  1  0.42908676  0.59855171  0.43830256  1
  C  C415  1  0.40938030  0.58082422  0.43830166  1
  C  C416  1  0.40204384  0.57186877  0.41711251  1
  C  C417  1  0.38893546  0.54882821  0.45950254  1
  C  C418  1  0.38473236  0.53804629  0.43830884  1
  C  C419  1  0.37919275  0.51212804  0.43829345  1
  C  C420  1  0.37852009  0.50056223  0.41710655  1
  C  C421  1  0.38140903  0.47422520  0.45949631  1
  C  C422  1  0.38434429  0.46302822  0.43830738  1
  C  C423  1  0.39512749  0.43882119  0.43829898  1
  C  C424  1  0.40139754  0.42904491  0.41711280  1
  C  C425  1  0.41923593  0.40947179  0.45949177  1
  C  C426  1  0.42817600  0.40212485  0.43829215  1
  C  C427  1  0.45113273  0.38884928  0.43829199  1
  C  C428  1  0.46193211  0.38463057  0.41710844  1
  C  C429  1  0.48786688  0.37924984  0.45949186  1
  C  C430  1  0.49941703  0.37858155  0.43829302  1
  C  C431  1  0.52578228  0.38136019  0.43829714  1
  C  C432  1  0.53698739  0.38429464  0.41710258  1
  C  C433  1  0.56115352  0.39519543  0.45949188  1
  C  C434  1  0.57089779  0.40145237  0.43829667  1
  C  C435  1  0.59058150  0.41917848  0.43830073  1
  C  C436  1  0.59791944  0.42814442  0.41710825  1
  C  C437  1  0.61102994  0.45117812  0.45949417  1
  C  C438  1  0.61526672  0.46195347  0.43830443  1
  C  C439  1  0.62081180  0.48786698  0.43829823  1
  C  C440  1  0.62134959  0.49943412  0.45949274  1
  C  C441  1  0.61856572  0.52577307  0.45948808  1
  C  C442  1  0.61550778  0.53692330  0.48070129  1
  C  C443  1  0.60473533  0.56112277  0.48070399  1
  C  C444  1  0.59850730  0.57086077  0.45948745  1
  C  C445  1  0.58068151  0.59047761  0.50198026  1
  C  C446  1  0.57174829  0.59777882  0.48069342  1
  C  C447  1  0.54880131  0.61100551  0.48069298  1
  C  C448  1  0.53802661  0.61519944  0.45947946  1
  C  C449  1  0.51209346  0.62059198  0.50198387  1
  C  C450  1  0.50057294  0.62125552  0.48069972  1
  C  C451  1  0.47422255  0.61849192  0.48070134  1
  C  C452  1  0.46304254  0.61556577  0.45948872  1
  C  C453  1  0.43888795  0.60468345  0.50199482  1
  C  C454  1  0.42918122  0.59845100  0.48070712  1
  C  C455  1  0.40948899  0.58072640  0.48070847  1
  C  C456  1  0.40216547  0.57178267  0.45949506  1
  C  C457  1  0.38904359  0.54877674  0.50200005  1
  C  C458  1  0.38485054  0.53802053  0.48071584  1
  C  C459  1  0.37932453  0.51210876  0.48071303  1
  C  C460  1  0.37864058  0.50057539  0.45948914  1
  C  C461  1  0.38155520  0.47425110  0.50199710  1
  C  C462  1  0.38447392  0.46308553  0.48071155  1
  C  C463  1  0.39527827  0.43888850  0.48071131  1
  C  C464  1  0.40150932  0.42916092  0.45949201  1
  C  C465  1  0.41934136  0.40954628  0.50199368  1
  C  C466  1  0.42825967  0.40223463  0.48070570  1
  C  C467  1  0.45119748  0.38897492  0.48071131  1
  C  C468  1  0.46195574  0.38475931  0.45949418  1
  C  C469  1  0.48790098  0.37938110  0.50199863  1
  C  C470  1  0.49942768  0.37871204  0.48071077  1
  C  C471  1  0.52577566  0.38149175  0.48070810  1
  C  C472  1  0.53695161  0.38442130  0.45949130  1
  C  C473  1  0.56110284  0.39530565  0.50200003  1
  C  C474  1  0.57080852  0.40154198  0.48071019  1
  C  C475  1  0.59049503  0.41926729  0.48071368  1
  C  C476  1  0.59780545  0.42822324  0.45949705  1
  C  C477  1  0.61094225  0.45123690  0.50199708  1
  C  C478  1  0.61512948  0.46198423  0.48070913  1
  C  C479  1  0.62067113  0.48789387  0.48070264  1
  C  C480  1  0.62121410  0.49941545  0.50198974  1
  C  C481  1  0.61844203  0.52576515  0.50198736  1
  C  C482  1  0.61540707  0.53688821  0.52338100  1
  C  C483  1  0.60463061  0.56109263  0.52338071  1
  C  C484  1  0.59840011  0.57077720  0.50198225  1
  C  C485  1  0.58058800  0.59038642  0.54488251  1
  C  C486  1  0.57169562  0.59766897  0.52338256  1
  C  C487  1  0.54874182  0.61090646  0.52338218  1
  C  C488  1  0.53800764  0.61508416  0.50198011  1
  C  C489  1  0.51206263  0.62047129  0.54488575  1
  C  C490  1  0.50058771  0.62113539  0.52338301  1
  C  C491  1  0.47423606  0.61837251  0.52338760  1
  C  C492  1  0.46309350  0.61545234  0.50198872  1
  C  C493  1  0.43894603  0.60457076  0.54490429  1
  C  C494  1  0.42926823  0.59836607  0.52340058  1
  C  C495  1  0.40958112  0.58063928  0.52339904  1
  C  C496  1  0.40227911  0.57172393  0.50199569  1
  C  C497  1  0.38913948  0.54870961  0.54489975  1
  C  C498  1  0.38496134  0.53800831  0.52339696  1
  C  C499  1  0.37945067  0.51208726  0.52340161  1
  C  C500  1  0.37878022  0.50059083  0.50200419  1
  C  C501  1  0.38169555  0.47423538  0.54488910  1
  C  C502  1  0.38460193  0.46312560  0.52338748  1
  C  C503  1  0.39538294  0.43891585  0.52338900  1
  C  C504  1  0.40162096  0.42923903  0.50198719  1
  C  C505  1  0.41942732  0.40961640  0.54489440  1
  C  C506  1  0.42832605  0.40233875  0.52339189  1
  C  C507  1  0.45126342  0.38908037  0.52339405  1
  C  C508  1  0.46199315  0.38489569  0.50199365  1
  C  C509  1  0.48793530  0.37951343  0.54490081  1
  C  C510  1  0.49940518  0.37883979  0.52339797  1
  C  C511  1  0.52575950  0.38161272  0.52339966  1
  C  C512  1  0.53689809  0.38453795  0.50199491  1
  C  C513  1  0.56106260  0.39542257  0.54490841  1
  C  C514  1  0.57073234  0.40162414  0.52340143  1
  C  C515  1  0.59040659  0.41937493  0.52339493  1
  C  C516  1  0.59770321  0.42828962  0.50199745  1
  C  C517  1  0.61082470  0.45131168  0.54489924  1
  C  C518  1  0.61501682  0.46200836  0.52339427  1
  C  C519  1  0.62054627  0.48792233  0.52338807  1
  C  C520  1  0.62108726  0.49940802  0.54488975  1
  C  C521  1  0.61832441  0.52577069  0.54488387  1
  C  C522  1  0.61529898  0.53682577  0.56646229  1
  C  C523  1  0.60451183  0.56104715  0.56646708  1
  C  C524  1  0.59832591  0.57069096  0.54488646  1
  C  C525  1  0.58047143  0.59028819  0.58810753  1
  C  C526  1  0.57162997  0.59754462  0.56646374  1
  C  C527  1  0.54866433  0.61079090  0.56646544  1
  C  C528  1  0.53799153  0.61495907  0.54488285  1
  C  C529  1  0.51202102  0.62032694  0.58811189  1
  C  C530  1  0.50061988  0.62100383  0.56646685  1
  C  C531  1  0.47425179  0.61823935  0.56647504  1
  C  C532  1  0.46316448  0.61534252  0.54489861  1
  C  C533  1  0.43899208  0.60442862  0.58811863  1
  C  C534  1  0.42936447  0.59826498  0.56647898  1
  C  C535  1  0.40966712  0.58052161  0.56647741  1
  C  C536  1  0.40239718  0.57166075  0.54489981  1
  C  C537  1  0.38927173  0.54861965  0.58811713  1
  C  C538  1  0.38510659  0.53797724  0.56647239  1
  C  C539  1  0.37959841  0.51204440  0.56647617  1
  C  C540  1  0.37893309  0.50059565  0.54490081  1
  C  C541  1  0.38182755  0.47424794  0.58811308  1
  C  C542  1  0.38471792  0.46318381  0.56647136  1
  C  C543  1  0.39549816  0.43896338  0.56647198  1
  C  C544  1  0.40168358  0.42931199  0.54489281  1
  C  C545  1  0.41952689  0.40970342  0.58811621  1
  C  C546  1  0.42837344  0.40245544  0.56647389  1
  C  C547  1  0.45133318  0.38920263  0.56647729  1
  C  C548  1  0.46200723  0.38502236  0.54489856  1
  C  C549  1  0.48797649  0.37966597  0.58811885  1
  C  C550  1  0.49938923  0.37899001  0.56647790  1
  C  C551  1  0.52575442  0.38175465  0.56648167  1
  C  C552  1  0.53684350  0.38464568  0.54489892  1
  C  C553  1  0.56101345  0.39555573  0.58812143  1
  C  C554  1  0.57064273  0.40172341  0.56648278  1
  C  C555  1  0.59033239  0.41947639  0.56647747  1
  C  C556  1  0.59758418  0.42834891  0.54490040  1
  C  C557  1  0.61071444  0.45138519  0.58811279  1
  C  C558  1  0.61487687  0.46203714  0.56647522  1
  C  C559  1  0.62040391  0.48796382  0.56646556  1
  C  C560  1  0.62093291  0.49938529  0.58810985  1
  C  C561  1  0.61818223  0.52575917  0.58810653  1
  C  C562  1  0.61516956  0.53675758  0.60980544  1
  C  C563  1  0.60437676  0.56098836  0.60980898  1
  C  C564  1  0.59822435  0.57059123  0.58810900  1
  C  C565  1  0.58037172  0.59022221  0.63158429  1
  C  C566  1  0.57156095  0.59741828  0.60980521  1
  C  C567  1  0.54858760  0.61067894  0.60980310  1
  C  C568  1  0.53796306  0.61482095  0.58810706  1
  C  C569  1  0.51198951  0.62021394  0.63158602  1
  C  C570  1  0.50063144  0.62085035  0.60981035  1
  C  C571  1  0.47425488  0.61809609  0.60981389  1
  C  C572  1  0.46321932  0.61521417  0.58811445  1
  C  C573  1  0.43902848  0.60431323  0.63159076  1
  C  C574  1  0.42946633  0.59815516  0.60981555  1
  C  C575  1  0.40976257  0.58039894  0.60981624  1
  C  C576  1  0.40253321  0.57158219  0.58811785  1
  C  C577  1  0.38936007  0.54854422  0.63159169  1
  C  C578  1  0.38524333  0.53794869  0.60981487  1
  C  C579  1  0.37973154  0.51200273  0.60981558  1
  C  C580  1  0.37906384  0.50062156  0.58811609  1
  C  C581  1  0.38195567  0.47424589  0.63159074  1
  C  C582  1  0.38484527  0.46324940  0.60981290  1
  C  C583  1  0.39563337  0.43901667  0.60981111  1
  C  C584  1  0.40178602  0.42941481  0.58811299  1
  C  C585  1  0.41962869  0.40977831  0.63159333  1
  C  C586  1  0.42843188  0.40257742  0.60981339  1
  C  C587  1  0.45140886  0.38932136  0.60981532  1
  C  C588  1  0.46203674  0.38517732  0.58811956  1
  C  C589  1  0.48801081  0.37977264  0.63159171  1
  C  C590  1  0.49936889  0.37912734  0.60981894  1
  C  C591  1  0.52574850  0.38190383  0.60982014  1
  C  C592  1  0.53678245  0.38478600  0.58812219  1
  C  C593  1  0.56097403  0.39568152  0.63159323  1
  C  C594  1  0.57054356  0.40183009  0.60981752  1
  C  C595  1  0.59024775  0.41958330  0.60981414  1
  C  C596  1  0.59746711  0.42841363  0.58811553  1
  C  C597  1  0.61063750  0.45144530  0.63158597  1
  C  C598  1  0.61474489  0.46204913  0.60981125  1
  C  C599  1  0.62025683  0.48799336  0.60980737  1
  C  C600  1  0.62080295  0.49935486  0.63158319  1
  C  C601  1  0.61805409  0.52575622  0.63158295  1
  C  C602  1  0.61510127  0.53670593  0.65346985  1
  C  C603  1  0.60428577  0.56097538  0.65347193  1
  C  C604  1  0.59813155  0.57049656  0.63158440  1
  C  C605  1  0.58034984  0.59023971  0.67546920  1
  C  C606  1  0.57154572  0.59734070  0.65347199  1
  C  C607  1  0.54853396  0.61062764  0.65347049  1
  C  C608  1  0.53795532  0.61470689  0.63158169  1
  C  C609  1  0.51196547  0.62022504  0.67546893  1
  C  C610  1  0.50066336  0.62079373  0.65347363  1
  C  C611  1  0.47424138  0.61802279  0.65347268  1
  C  C612  1  0.46328103  0.61511345  0.63159008  1
  C  C613  1  0.43900686  0.60429418  0.67547043  1
  C  C614  1  0.42953216  0.59811314  0.65347354  1
  C  C615  1  0.40980203  0.58032728  0.65347202  1
  C  C616  1  0.40264594  0.57152664  0.63158870  1
  C  C617  1  0.38934116  0.54852830  0.67547153  1
  C  C618  1  0.38531079  0.53795703  0.65347586  1
  C  C619  1  0.37979914  0.51196629  0.65347568  1
  C  C620  1  0.37918693  0.50064158  0.63158983  1
  C  C621  1  0.38195958  0.47422460  0.67547292  1
  C  C622  1  0.38490700  0.46329740  0.65347761  1
  C  C623  1  0.39571575  0.43902465  0.65347728  1
  C  C624  1  0.40186879  0.42950507  0.63158797  1
  C  C625  1  0.41965738  0.40975913  0.67547648  1
  C  C626  1  0.42845795  0.40266120  0.65347840  1
  C  C627  1  0.45146770  0.38937280  0.65347837  1
  C  C628  1  0.46204486  0.38528974  0.63159085  1
  C  C629  1  0.48803449  0.37976943  0.67547490  1
  C  C630  1  0.49933297  0.37919856  0.65347827  1
  C  C631  1  0.52575897  0.38198389  0.65348204  1
  C  C632  1  0.53672091  0.38489493  0.63159663  1
  C  C633  1  0.56099261  0.39570312  0.67547781  1
  C  C634  1  0.57047232  0.40187373  0.65348162  1
  C  C635  1  0.59021682  0.41965337  0.65347725  1
  C  C636  1  0.59737086  0.42845434  0.63158762  1
  C  C637  1  0.61064594  0.45147073  0.67547238  1
  C  C638  1  0.61467438  0.46203741  0.65347336  1
  C  C639  1  0.62019153  0.48802900  0.65347084  1
  C  C640  1  0.62081751  0.49933169  0.67546468  1
  C  C641  1  0.61804546  0.52578127  0.67546381  1
  C  C642  1  0.61522784  0.53672624  0.69752737  1
  C  C643  1  0.60439229  0.56105383  0.69753024  1
  C  C644  1  0.59814261  0.57046991  0.67546869  1
  C  C645  1  0.58058924  0.59050262  0.71960855  1
  C  C646  1  0.57163458  0.59744176  0.69753064  1
  C  C647  1  0.54856872  0.61075663  0.69752960  1
  C  C648  1  0.53798356  0.61470107  0.67546651  1
  C  C649  1  0.51199827  0.62058326  0.71960735  1
  C  C650  1  0.50068172  0.62092875  0.69752787  1
  C  C651  1  0.47419583  0.61815585  0.69752649  1
  C  C652  1  0.46330680  0.61512083  0.67546823  1
  C  C653  1  0.43883652  0.60460534  0.71960944  1
  C  C654  1  0.42947198  0.59823029  0.69753207  1
  C  C655  1  0.40968607  0.58040633  0.69753188  1
  C  C656  1  0.40266500  0.57155132  0.67546723  1
  C  C657  1  0.38901343  0.54868329  0.71961064  1
  C  C658  1  0.38518242  0.53802037  0.69753327  1
  C  C659  1  0.37965921  0.51196863  0.69753344  1
  C  C660  1  0.37918874  0.50067564  0.67547185  1
  C  C661  1  0.38160748  0.47415609  0.71961600  1
  C  C662  1  0.38477591  0.46328219  0.69753554  1
  C  C663  1  0.39561004  0.43895485  0.69753054  1
  C  C664  1  0.40185994  0.42952655  0.67547162  1
  C  C665  1  0.41941261  0.40950776  0.71961481  1
  C  C666  1  0.42836372  0.40255996  0.69753826  1
  C  C667  1  0.45142415  0.38923811  0.69753585  1
  C  C668  1  0.46201651  0.38529576  0.67547547  1
  C  C669  1  0.48799442  0.37940903  0.71961431  1
  C  C670  1  0.49931852  0.37906510  0.69753615  1
  C  C671  1  0.52580247  0.38185489  0.69753872  1
  C  C672  1  0.53669263  0.38489377  0.67547905  1
  C  C673  1  0.56116646  0.39538665  0.71961308  1
  C  C674  1  0.57053217  0.40176198  0.69753832  1
  C  C675  1  0.59032229  0.41958316  0.69753544  1
  C  C676  1  0.59734729  0.42843618  0.67547383  1
  C  C677  1  0.61097291  0.45132600  0.71960991  1
  C  C678  1  0.61480010  0.46198872  0.69753239  1
  C  C679  1  0.62033614  0.48803936  0.69752930  1
  C  C680  1  0.62117250  0.49933662  0.71960896  1
  C  C681  1  0.61839508  0.52585265  0.71960584  1
  C  C682  1  0.61589957  0.53696731  0.74170480  1
  C  C683  1  0.60501833  0.56139545  0.74170456  1
  C  C684  1  0.59842643  0.57068355  0.71960715  1
  C  C685  1  0.58152272  0.59144688  0.76377654  1
  C  C686  1  0.57203681  0.59802936  0.74170316  1
  C  C687  1  0.54887454  0.61139489  0.74170048  1
  C  C688  1  0.53807904  0.61504433  0.71960803  1
  C  C689  1  0.51220054  0.62189870  0.76377409  1
  C  C690  1  0.50065623  0.62164495  0.74170028  1
  C  C691  1  0.47406184  0.61885480  0.74170147  1
  C  C692  1  0.46319236  0.61545968  0.71960440  1
  C  C693  1  0.43822601  0.60579063  0.76377785  1
  C  C694  1  0.42903731  0.59879689  0.74170566  1
  C  C695  1  0.40916733  0.58090369  0.74170417  1
  C  C696  1  0.40236273  0.57176605  0.71961001  1
  C  C697  1  0.38783287  0.54927720  0.76377855  1
  C  C698  1  0.38450382  0.53822500  0.74170442  1
  C  C699  1  0.37895071  0.51206706  0.74170375  1
  C  C700  1  0.37882527  0.50067163  0.71961222  1
  C  C701  1  0.38029379  0.47394120  0.76378043  1
  C  C702  1  0.38410029  0.46303963  0.74170985  1
  C  C703  1  0.39498555  0.43861165  0.74170578  1
  C  C704  1  0.40157898  0.42932777  0.71961038  1
  C  C705  1  0.41847885  0.40855606  0.76377785  1
  C  C706  1  0.42796492  0.40197418  0.74170528  1
  C  C707  1  0.45112125  0.38860130  0.74170554  1
  C  C708  1  0.46191368  0.38495575  0.71961144  1
  C  C709  1  0.48779801  0.37809750  0.76377864  1
  C  C710  1  0.49934250  0.37834813  0.74170641  1
  C  C711  1  0.52593577  0.38114883  0.74170778  1
  C  C712  1  0.53680747  0.38454892  0.71961561  1
  C  C713  1  0.56178408  0.39420374  0.76377392  1
  C  C714  1  0.57097485  0.40119350  0.74170141  1
  C  C715  1  0.59083791  0.41909677  0.74170519  1
  C  C716  1  0.59763791  0.42823752  0.71961066  1
  C  C717  1  0.61216445  0.45072589  0.76377606  1
  C  C718  1  0.61549349  0.46178543  0.74170309  1
  C  C719  1  0.62104203  0.48794157  0.74170289  1
  C  C720  1  0.62250574  0.49939223  0.76377818  1
  C  C721  1  0.61970748  0.52606193  0.76377720  1
  C  C722  1  0.61816144  0.53786388  0.78569881  1
  C  C723  1  0.60720202  0.56246542  0.78570118  1
  C  C724  1  0.59946579  0.57151681  0.76377891  1
  C  C725  1  0.58470324  0.59407248  0.80739481  1
  C  C726  1  0.57333346  0.60008611  0.78569912  1
  C  C727  1  0.55000782  0.61354666  0.78570042  1
  C  C728  1  0.53843200  0.61632267  0.76377588  1
  C  C729  1  0.51323195  0.62589356  0.80739481  1
  C  C730  1  0.50050128  0.62407646  0.78569762  1
  C  C731  1  0.47371664  0.62126374  0.78570038  1
  C  C732  1  0.46272283  0.61670571  0.76377651  1
  C  C733  1  0.43670649  0.60962757  0.80739481  1
  C  C734  1  0.42747498  0.60067109  0.78569975  1
  C  C735  1  0.40746338  0.58264886  0.78569913  1
  C  C736  1  0.40124771  0.57249667  0.76377719  1
  C  C737  1  0.38435701  0.55148758  0.80739481  1
  C  C738  1  0.38215127  0.53881620  0.78570093  1
  C  C739  1  0.37655597  0.51247403  0.78570018  1
  C  C740  1  0.37749722  0.50061171  0.76377589  1
  C  C741  1  0.37617922  0.47368108  0.80739481  1
  C  C742  1  0.38184095  0.46213267  0.78570100  1
  C  C743  1  0.39279779  0.43753218  0.78570038  1
  C  C744  1  0.40053733  0.42848526  0.76377744  1
  C  C745  1  0.41529676  0.40592752  0.80739481  1
  C  C746  1  0.42666679  0.39991520  0.78569998  1
  C  C747  1  0.44999074  0.38645021  0.78570039  1
  C  C748  1  0.46156801  0.38367725  0.76377774  1
  C  C749  1  0.48676805  0.37410644  0.80739481  1
  C  C750  1  0.49950444  0.37592161  0.78570014  1
  C  C751  1  0.52628803  0.37873634  0.78569851  1
  C  C752  1  0.53728456  0.38330084  0.76377734  1
  C  C753  1  0.56329351  0.39037243  0.80739481  1
  C  C754  1  0.57252354  0.39932520  0.78569890  1
  C  C755  1  0.59253595  0.41734777  0.78570121  1
  C  C756  1  0.59874884  0.42750348  0.76377785  1
  C  C757  1  0.61564299  0.44851242  0.80739481  1
  C  C758  1  0.61785006  0.46118674  0.78570218  1
  C  C759  1  0.62344884  0.48752833  0.78569998  1
  C  C760  1  0.62658701  0.50000000  0.80739481  1
  C  C761  1  0.62382078  0.52631892  0.80739481  1
  C  C762  1  0.62039140  0.53911754  0.82662558  1
  C  C763  1  0.60962757  0.56329351  0.82662558  1
  C  C764  1  0.60241104  0.57440598  0.80739481  1
  C  C765  1  0.58470324  0.59407248  0.00156379  1
  C  C766  1  0.57440598  0.60241104  0.82662558  1
  C  C767  1  0.55148758  0.61564299  0.82662558  1
  C  C768  1  0.53911754  0.62039140  0.80739481  1
  C  C769  1  0.51323195  0.62589356  0.00156379  1
  C  C770  1  0.50000000  0.62658701  0.82662558  1
  C  C771  1  0.47368108  0.62382078  0.82662558  1
  C  C772  1  0.46088246  0.62039140  0.80739481  1
  C  C773  1  0.43670649  0.60962757  0.00156379  1
  C  C774  1  0.42559402  0.60241104  0.82662558  1
  C  C775  1  0.40592752  0.58470324  0.82662558  1
  C  C776  1  0.39758896  0.57440598  0.80739481  1
  C  C777  1  0.38435701  0.55148758  0.00156379  1
  C  C778  1  0.37960860  0.53911754  0.82662558  1
  C  C779  1  0.37410644  0.51323195  0.82662558  1
  C  C780  1  0.37341299  0.50000000  0.80739481  1
  C  C781  1  0.37617922  0.47368108  0.00156379  1
  C  C782  1  0.37960860  0.46088246  0.82662558  1
  C  C783  1  0.39037243  0.43670649  0.82662558  1
  C  C784  1  0.39758896  0.42559402  0.80739481  1
  C  C785  1  0.41529676  0.40592752  0.00156379  1
  C  C786  1  0.42559402  0.39758896  0.82662558  1
  C  C787  1  0.44851242  0.38435701  0.82662558  1
  C  C788  1  0.46088246  0.37960860  0.80739481  1
  C  C789  1  0.48676805  0.37410644  0.00156379  1
  C  C790  1  0.50000000  0.37341299  0.82662558  1
  C  C791  1  0.52631892  0.37617922  0.82662558  1
  C  C792  1  0.53911754  0.37960860  0.80739481  1
  C  C793  1  0.56329351  0.39037243  0.00156379  1
  C  C794  1  0.57440598  0.39758896  0.82662558  1
  C  C795  1  0.59407248  0.41529676  0.82662558  1
  C  C796  1  0.60241104  0.42559402  0.80739481  1
  C  C797  1  0.61564299  0.44851242  0.00156379  1
  C  C798  1  0.62039140  0.46088246  0.82662558  1
  C  C799  1  0.62589356  0.48676805  0.82662558  1
