# generated using pymatgen
data_C
_symmetry_space_group_name_H-M   'P 1'
_cell_length_a   53.56000115
_cell_length_b   53.56000115
_cell_length_c   49.19024293
_cell_angle_alpha   90.00000000
_cell_angle_beta   90.00000000
_cell_angle_gamma   90.00000000
_symmetry_Int_Tables_number   1
_chemical_formula_structural   C
_chemical_formula_sum   C800
_cell_volume   141110.75735228
_cell_formula_units_Z   800
loop_
 _symmetry_equiv_pos_site_id
 _symmetry_equiv_pos_as_xyz
  1  'x, y, z'
loop_
 _atom_site_type_symbol
 _atom_site_label
 _atom_site_symmetry_multiplicity
 _atom_site_fract_x
 _atom_site_fract_y
 _atom_site_fract_z
 _atom_site_occupancy
  C  C0  1  0.62658701  0.50000000  0.00000000  1
  C  C1  1  0.62382078  0.52631892  0.00000000  1
  C  C2  1  0.62039140  0.53911754  0.02500000  1
  C  C3  1  0.60962757  0.56329351  0.02500000  1
  C  C4  1  0.60241104  0.57440598  -0.00000000  1
  C  C5  1  0.58470324  0.59407248  0.05000000  1
  C  C6  1  0.57440598  0.60241104  0.02500000  1
  C  C7  1  0.55148758  0.61564299  0.02500000  1
  C  C8  1  0.53911754  0.62039140  -0.00000000  1
  C  C9  1  0.51323195  0.62589356  0.05000000  1
  C  C10  1  0.50000000  0.62658701  0.02500000  1
  C  C11  1  0.47368108  0.62382078  0.02500000  1
  C  C12  1  0.46088246  0.62039140  -0.00000000  1
  C  C13  1  0.43670649  0.60962757  0.05000000  1
  C  C14  1  0.42559402  0.60241104  0.02500000  1
  C  C15  1  0.40592752  0.58470324  0.02500000  1
  C  C16  1  0.39758896  0.57440598  -0.00000000  1
  C  C17  1  0.38435701  0.55148758  0.05000000  1
  C  C18  1  0.37960860  0.53911754  0.02500000  1
  C  C19  1  0.37410644  0.51323195  0.02500000  1
  C  C20  1  0.37341299  0.50000000  -0.00000000  1
  C  C21  1  0.37617922  0.47368108  0.05000000  1
  C  C22  1  0.37960860  0.46088246  0.02500000  1
  C  C23  1  0.39037243  0.43670649  0.02500000  1
  C  C24  1  0.39758896  0.42559402  -0.00000000  1
  C  C25  1  0.41529676  0.40592752  0.05000000  1
  C  C26  1  0.42559402  0.39758896  0.02500000  1
  C  C27  1  0.44851242  0.38435701  0.02500000  1
  C  C28  1  0.46088246  0.37960860  -0.00000000  1
  C  C29  1  0.48676805  0.37410644  0.05000000  1
  C  C30  1  0.50000000  0.37341299  0.02500000  1
  C  C31  1  0.52631892  0.37617922  0.02500000  1
  C  C32  1  0.53911754  0.37960860  -0.00000000  1
  C  C33  1  0.56329351  0.39037243  0.05000000  1
  C  C34  1  0.57440598  0.39758896  0.02500000  1
  C  C35  1  0.59407248  0.41529676  0.02500000  1
  C  C36  1  0.60241104  0.42559402  -0.00000000  1
  C  C37  1  0.61564299  0.44851242  0.05000000  1
  C  C38  1  0.62039140  0.46088246  0.02500000  1
  C  C39  1  0.62589356  0.48676805  0.02500000  1
  C  C40  1  0.62658701  0.50000000  0.05000000  1
  C  C41  1  0.62382078  0.52631892  0.05000000  1
  C  C42  1  0.62039140  0.53911754  0.07500000  1
  C  C43  1  0.60962757  0.56329351  0.07500000  1
  C  C44  1  0.60241104  0.57440598  0.05000000  1
  C  C45  1  0.58470324  0.59407248  0.10000000  1
  C  C46  1  0.57440598  0.60241104  0.07500000  1
  C  C47  1  0.55148758  0.61564299  0.07500000  1
  C  C48  1  0.53911754  0.62039140  0.05000000  1
  C  C49  1  0.51323195  0.62589356  0.10000000  1
  C  C50  1  0.50000000  0.62658701  0.07500000  1
  C  C51  1  0.47368108  0.62382078  0.07500000  1
  C  C52  1  0.46088246  0.62039140  0.05000000  1
  C  C53  1  0.43670649  0.60962757  0.10000000  1
  C  C54  1  0.42559402  0.60241104  0.07500000  1
  C  C55  1  0.40592752  0.58470324  0.07500000  1
  C  C56  1  0.39758896  0.57440598  0.05000000  1
  C  C57  1  0.38435701  0.55148758  0.10000000  1
  C  C58  1  0.37960860  0.53911754  0.07500000  1
  C  C59  1  0.37410644  0.51323195  0.07500000  1
  C  C60  1  0.37341299  0.50000000  0.05000000  1
  C  C61  1  0.37617922  0.47368108  0.10000000  1
  C  C62  1  0.37960860  0.46088246  0.07500000  1
  C  C63  1  0.39037243  0.43670649  0.07500000  1
  C  C64  1  0.39758896  0.42559402  0.05000000  1
  C  C65  1  0.41529676  0.40592752  0.10000000  1
  C  C66  1  0.42559402  0.39758896  0.07500000  1
  C  C67  1  0.44851242  0.38435701  0.07500000  1
  C  C68  1  0.46088246  0.37960860  0.05000000  1
  C  C69  1  0.48676805  0.37410644  0.10000000  1
  C  C70  1  0.50000000  0.37341299  0.07500000  1
  C  C71  1  0.52631892  0.37617922  0.07500000  1
  C  C72  1  0.53911754  0.37960860  0.05000000  1
  C  C73  1  0.56329351  0.39037243  0.10000000  1
  C  C74  1  0.57440598  0.39758896  0.07500000  1
  C  C75  1  0.59407248  0.41529676  0.07500000  1
  C  C76  1  0.60241104  0.42559402  0.05000000  1
  C  C77  1  0.61564299  0.44851242  0.10000000  1
  C  C78  1  0.62039140  0.46088246  0.07500000  1
  C  C79  1  0.62589356  0.48676805  0.07500000  1
  C  C80  1  0.62658701  0.50000000  0.10000000  1
  C  C81  1  0.62382078  0.52631892  0.10000000  1
  C  C82  1  0.62039140  0.53911754  0.12500000  1
  C  C83  1  0.60962757  0.56329351  0.12500000  1
  C  C84  1  0.60241104  0.57440598  0.10000000  1
  C  C85  1  0.58470324  0.59407248  0.15000000  1
  C  C86  1  0.57440598  0.60241104  0.12500000  1
  C  C87  1  0.55148758  0.61564299  0.12500000  1
  C  C88  1  0.53911754  0.62039140  0.10000000  1
  C  C89  1  0.51323195  0.62589356  0.15000000  1
  C  C90  1  0.50000000  0.62658701  0.12500000  1
  C  C91  1  0.47368108  0.62382078  0.12500000  1
  C  C92  1  0.46088246  0.62039140  0.10000000  1
  C  C93  1  0.43670649  0.60962757  0.15000000  1
  C  C94  1  0.42559402  0.60241104  0.12500000  1
  C  C95  1  0.40592752  0.58470324  0.12500000  1
  C  C96  1  0.39758896  0.57440598  0.10000000  1
  C  C97  1  0.38435701  0.55148758  0.15000000  1
  C  C98  1  0.37960860  0.53911754  0.12500000  1
  C  C99  1  0.37410644  0.51323195  0.12500000  1
  C  C100  1  0.37341299  0.50000000  0.10000000  1
  C  C101  1  0.37617922  0.47368108  0.15000000  1
  C  C102  1  0.37960860  0.46088246  0.12500000  1
  C  C103  1  0.39037243  0.43670649  0.12500000  1
  C  C104  1  0.39758896  0.42559402  0.10000000  1
  C  C105  1  0.41529676  0.40592752  0.15000000  1
  C  C106  1  0.42559402  0.39758896  0.12500000  1
  C  C107  1  0.44851242  0.38435701  0.12500000  1
  C  C108  1  0.46088246  0.37960860  0.10000000  1
  C  C109  1  0.48676805  0.37410644  0.15000000  1
  C  C110  1  0.50000000  0.37341299  0.12500000  1
  C  C111  1  0.52631892  0.37617922  0.12500000  1
  C  C112  1  0.53911754  0.37960860  0.10000000  1
  C  C113  1  0.56329351  0.39037243  0.15000000  1
  C  C114  1  0.57440598  0.39758896  0.12500000  1
  C  C115  1  0.59407248  0.41529676  0.12500000  1
  C  C116  1  0.60241104  0.42559402  0.10000000  1
  C  C117  1  0.61564299  0.44851242  0.15000000  1
  C  C118  1  0.62039140  0.46088246  0.12500000  1
  C  C119  1  0.62589356  0.48676805  0.12500000  1
  C  C120  1  0.62658701  0.50000000  0.15000000  1
  C  C121  1  0.62382078  0.52631892  0.15000000  1
  C  C122  1  0.62039140  0.53911754  0.17500000  1
  C  C123  1  0.60962757  0.56329351  0.17500000  1
  C  C124  1  0.60241104  0.57440598  0.15000000  1
  C  C125  1  0.58470324  0.59407248  0.20000000  1
  C  C126  1  0.57440598  0.60241104  0.17500000  1
  C  C127  1  0.55148758  0.61564299  0.17500000  1
  C  C128  1  0.53911754  0.62039140  0.15000000  1
  C  C129  1  0.51323195  0.62589356  0.20000000  1
  C  C130  1  0.50000000  0.62658701  0.17500000  1
  C  C131  1  0.47368108  0.62382078  0.17500000  1
  C  C132  1  0.46088246  0.62039140  0.15000000  1
  C  C133  1  0.43670649  0.60962757  0.20000000  1
  C  C134  1  0.42559402  0.60241104  0.17500000  1
  C  C135  1  0.40592752  0.58470324  0.17500000  1
  C  C136  1  0.39758896  0.57440598  0.15000000  1
  C  C137  1  0.38435701  0.55148758  0.20000000  1
  C  C138  1  0.37960860  0.53911754  0.17500000  1
  C  C139  1  0.37410644  0.51323195  0.17500000  1
  C  C140  1  0.37341299  0.50000000  0.15000000  1
  C  C141  1  0.37617922  0.47368108  0.20000000  1
  C  C142  1  0.37960860  0.46088246  0.17500000  1
  C  C143  1  0.39037243  0.43670649  0.17500000  1
  C  C144  1  0.39758896  0.42559402  0.15000000  1
  C  C145  1  0.41529676  0.40592752  0.20000000  1
  C  C146  1  0.42559402  0.39758896  0.17500000  1
  C  C147  1  0.44851242  0.38435701  0.17500000  1
  C  C148  1  0.46088246  0.37960860  0.15000000  1
  C  C149  1  0.48676805  0.37410644  0.20000000  1
  C  C150  1  0.50000000  0.37341299  0.17500000  1
  C  C151  1  0.52631892  0.37617922  0.17500000  1
  C  C152  1  0.53911754  0.37960860  0.15000000  1
  C  C153  1  0.56329351  0.39037243  0.20000000  1
  C  C154  1  0.57440598  0.39758896  0.17500000  1
  C  C155  1  0.59407248  0.41529676  0.17500000  1
  C  C156  1  0.60241104  0.42559402  0.15000000  1
  C  C157  1  0.61564299  0.44851242  0.20000000  1
  C  C158  1  0.62039140  0.46088246  0.17500000  1
  C  C159  1  0.62589356  0.48676805  0.17500000  1
  C  C160  1  0.62658701  0.50000000  0.20000000  1
  C  C161  1  0.62382078  0.52631892  0.20000000  1
  C  C162  1  0.62039140  0.53911754  0.22500000  1
  C  C163  1  0.60962757  0.56329351  0.22500000  1
  C  C164  1  0.60241104  0.57440598  0.20000000  1
  C  C165  1  0.58470324  0.59407248  0.25000000  1
  C  C166  1  0.57440598  0.60241104  0.22500000  1
  C  C167  1  0.55148758  0.61564299  0.22500000  1
  C  C168  1  0.53911754  0.62039140  0.20000000  1
  C  C169  1  0.51323195  0.62589356  0.25000000  1
  C  C170  1  0.50000000  0.62658701  0.22500000  1
  C  C171  1  0.47368108  0.62382078  0.22500000  1
  C  C172  1  0.46088246  0.62039140  0.20000000  1
  C  C173  1  0.43670649  0.60962757  0.25000000  1
  C  C174  1  0.42559402  0.60241104  0.22500000  1
  C  C175  1  0.40592752  0.58470324  0.22500000  1
  C  C176  1  0.39758896  0.57440598  0.20000000  1
  C  C177  1  0.38435701  0.55148758  0.25000000  1
  C  C178  1  0.37960860  0.53911754  0.22500000  1
  C  C179  1  0.37410644  0.51323195  0.22500000  1
  C  C180  1  0.37341299  0.50000000  0.20000000  1
  C  C181  1  0.37617922  0.47368108  0.25000000  1
  C  C182  1  0.37960860  0.46088246  0.22500000  1
  C  C183  1  0.39037243  0.43670649  0.22500000  1
  C  C184  1  0.39758896  0.42559402  0.20000000  1
  C  C185  1  0.41529676  0.40592752  0.25000000  1
  C  C186  1  0.42559402  0.39758896  0.22500000  1
  C  C187  1  0.44851242  0.38435701  0.22500000  1
  C  C188  1  0.46088246  0.37960860  0.20000000  1
  C  C189  1  0.48676805  0.37410644  0.25000000  1
  C  C190  1  0.50000000  0.37341299  0.22500000  1
  C  C191  1  0.52631892  0.37617922  0.22500000  1
  C  C192  1  0.53911754  0.37960860  0.20000000  1
  C  C193  1  0.56329351  0.39037243  0.25000000  1
  C  C194  1  0.57440598  0.39758896  0.22500000  1
  C  C195  1  0.59407248  0.41529676  0.22500000  1
  C  C196  1  0.60241104  0.42559402  0.20000000  1
  C  C197  1  0.61564299  0.44851242  0.25000000  1
  C  C198  1  0.62039140  0.46088246  0.22500000  1
  C  C199  1  0.62589356  0.48676805  0.22500000  1
  C  C200  1  0.62658701  0.50000000  0.25000000  1
  C  C201  1  0.62382078  0.52631892  0.25000000  1
  C  C202  1  0.62039140  0.53911754  0.27500000  1
  C  C203  1  0.60962757  0.56329351  0.27500000  1
  C  C204  1  0.60241104  0.57440598  0.25000000  1
  C  C205  1  0.58470324  0.59407248  0.30000000  1
  C  C206  1  0.57440598  0.60241104  0.27500000  1
  C  C207  1  0.55148758  0.61564299  0.27500000  1
  C  C208  1  0.53911754  0.62039140  0.25000000  1
  C  C209  1  0.51323195  0.62589356  0.30000000  1
  C  C210  1  0.50000000  0.62658701  0.27500000  1
  C  C211  1  0.47368108  0.62382078  0.27500000  1
  C  C212  1  0.46088246  0.62039140  0.25000000  1
  C  C213  1  0.43670649  0.60962757  0.30000000  1
  C  C214  1  0.42559402  0.60241104  0.27500000  1
  C  C215  1  0.40592752  0.58470324  0.27500000  1
  C  C216  1  0.39758896  0.57440598  0.25000000  1
  C  C217  1  0.38435701  0.55148758  0.30000000  1
  C  C218  1  0.37960860  0.53911754  0.27500000  1
  C  C219  1  0.37410644  0.51323195  0.27500000  1
  C  C220  1  0.37341299  0.50000000  0.25000000  1
  C  C221  1  0.37617922  0.47368108  0.30000000  1
  C  C222  1  0.37960860  0.46088246  0.27500000  1
  C  C223  1  0.39037243  0.43670649  0.27500000  1
  C  C224  1  0.39758896  0.42559402  0.25000000  1
  C  C225  1  0.41529676  0.40592752  0.30000000  1
  C  C226  1  0.42559402  0.39758896  0.27500000  1
  C  C227  1  0.44851242  0.38435701  0.27500000  1
  C  C228  1  0.46088246  0.37960860  0.25000000  1
  C  C229  1  0.48676805  0.37410644  0.30000000  1
  C  C230  1  0.50000000  0.37341299  0.27500000  1
  C  C231  1  0.52631892  0.37617922  0.27500000  1
  C  C232  1  0.53911754  0.37960860  0.25000000  1
  C  C233  1  0.56329351  0.39037243  0.30000000  1
  C  C234  1  0.57440598  0.39758896  0.27500000  1
  C  C235  1  0.59407248  0.41529676  0.27500000  1
  C  C236  1  0.60241104  0.42559402  0.25000000  1
  C  C237  1  0.61564299  0.44851242  0.30000000  1
  C  C238  1  0.62039140  0.46088246  0.27500000  1
  C  C239  1  0.62589356  0.48676805  0.27500000  1
  C  C240  1  0.62658701  0.50000000  0.30000000  1
  C  C241  1  0.62382078  0.52631892  0.30000000  1
  C  C242  1  0.62039140  0.53911754  0.32500000  1
  C  C243  1  0.60962757  0.56329351  0.32500000  1
  C  C244  1  0.60241104  0.57440598  0.30000000  1
  C  C245  1  0.58470324  0.59407248  0.35000000  1
  C  C246  1  0.57440598  0.60241104  0.32500000  1
  C  C247  1  0.55148758  0.61564299  0.32500000  1
  C  C248  1  0.53911754  0.62039140  0.30000000  1
  C  C249  1  0.51323195  0.62589356  0.35000000  1
  C  C250  1  0.50000000  0.62658701  0.32500000  1
  C  C251  1  0.47368108  0.62382078  0.32500000  1
  C  C252  1  0.46088246  0.62039140  0.30000000  1
  C  C253  1  0.43670649  0.60962757  0.35000000  1
  C  C254  1  0.42559402  0.60241104  0.32500000  1
  C  C255  1  0.40592752  0.58470324  0.32500000  1
  C  C256  1  0.39758896  0.57440598  0.30000000  1
  C  C257  1  0.38435701  0.55148758  0.35000000  1
  C  C258  1  0.37960860  0.53911754  0.32500000  1
  C  C259  1  0.37410644  0.51323195  0.32500000  1
  C  C260  1  0.37341299  0.50000000  0.30000000  1
  C  C261  1  0.37617922  0.47368108  0.35000000  1
  C  C262  1  0.37960860  0.46088246  0.32500000  1
  C  C263  1  0.39037243  0.43670649  0.32500000  1
  C  C264  1  0.39758896  0.42559402  0.30000000  1
  C  C265  1  0.41529676  0.40592752  0.35000000  1
  C  C266  1  0.42559402  0.39758896  0.32500000  1
  C  C267  1  0.44851242  0.38435701  0.32500000  1
  C  C268  1  0.46088246  0.37960860  0.30000000  1
  C  C269  1  0.48676805  0.37410644  0.35000000  1
  C  C270  1  0.50000000  0.37341299  0.32500000  1
  C  C271  1  0.52631892  0.37617922  0.32500000  1
  C  C272  1  0.53911754  0.37960860  0.30000000  1
  C  C273  1  0.56329351  0.39037243  0.35000000  1
  C  C274  1  0.57440598  0.39758896  0.32500000  1
  C  C275  1  0.59407248  0.41529676  0.32500000  1
  C  C276  1  0.60241104  0.42559402  0.30000000  1
  C  C277  1  0.61564299  0.44851242  0.35000000  1
  C  C278  1  0.62039140  0.46088246  0.32500000  1
  C  C279  1  0.62589356  0.48676805  0.32500000  1
  C  C280  1  0.62658701  0.50000000  0.35000000  1
  C  C281  1  0.62382078  0.52631892  0.35000000  1
  C  C282  1  0.62039140  0.53911754  0.37500000  1
  C  C283  1  0.60962757  0.56329351  0.37500000  1
  C  C284  1  0.60241104  0.57440598  0.35000000  1
  C  C285  1  0.58470324  0.59407248  0.40000000  1
  C  C286  1  0.57440598  0.60241104  0.37500000  1
  C  C287  1  0.55148758  0.61564299  0.37500000  1
  C  C288  1  0.53911754  0.62039140  0.35000000  1
  C  C289  1  0.51323195  0.62589356  0.40000000  1
  C  C290  1  0.50000000  0.62658701  0.37500000  1
  C  C291  1  0.47368108  0.62382078  0.37500000  1
  C  C292  1  0.46088246  0.62039140  0.35000000  1
  C  C293  1  0.43670649  0.60962757  0.40000000  1
  C  C294  1  0.42559402  0.60241104  0.37500000  1
  C  C295  1  0.40592752  0.58470324  0.37500000  1
  C  C296  1  0.39758896  0.57440598  0.35000000  1
  C  C297  1  0.38435701  0.55148758  0.40000000  1
  C  C298  1  0.37960860  0.53911754  0.37500000  1
  C  C299  1  0.37410644  0.51323195  0.37500000  1
  C  C300  1  0.37341299  0.50000000  0.35000000  1
  C  C301  1  0.37617922  0.47368108  0.40000000  1
  C  C302  1  0.37960860  0.46088246  0.37500000  1
  C  C303  1  0.39037243  0.43670649  0.37500000  1
  C  C304  1  0.39758896  0.42559402  0.35000000  1
  C  C305  1  0.41529676  0.40592752  0.40000000  1
  C  C306  1  0.42559402  0.39758896  0.37500000  1
  C  C307  1  0.44851242  0.38435701  0.37500000  1
  C  C308  1  0.46088246  0.37960860  0.35000000  1
  C  C309  1  0.48676805  0.37410644  0.40000000  1
  C  C310  1  0.50000000  0.37341299  0.37500000  1
  C  C311  1  0.52631892  0.37617922  0.37500000  1
  C  C312  1  0.53911754  0.37960860  0.35000000  1
  C  C313  1  0.56329351  0.39037243  0.40000000  1
  C  C314  1  0.57440598  0.39758896  0.37500000  1
  C  C315  1  0.59407248  0.41529676  0.37500000  1
  C  C316  1  0.60241104  0.42559402  0.35000000  1
  C  C317  1  0.61564299  0.44851242  0.40000000  1
  C  C318  1  0.62039140  0.46088246  0.37500000  1
  C  C319  1  0.62589356  0.48676805  0.37500000  1
  C  C320  1  0.62658701  0.50000000  0.40000000  1
  C  C321  1  0.62382078  0.52631892  0.40000000  1
  C  C322  1  0.62039140  0.53911754  0.42500000  1
  C  C323  1  0.60962757  0.56329351  0.42500000  1
  C  C324  1  0.60241104  0.57440598  0.40000000  1
  C  C325  1  0.58470324  0.59407248  0.45000000  1
  C  C326  1  0.57440598  0.60241104  0.42500000  1
  C  C327  1  0.55148758  0.61564299  0.42500000  1
  C  C328  1  0.53911754  0.62039140  0.40000000  1
  C  C329  1  0.51323195  0.62589356  0.45000000  1
  C  C330  1  0.50000000  0.62658701  0.42500000  1
  C  C331  1  0.47368108  0.62382078  0.42500000  1
  C  C332  1  0.46088246  0.62039140  0.40000000  1
  C  C333  1  0.43670649  0.60962757  0.45000000  1
  C  C334  1  0.42559402  0.60241104  0.42500000  1
  C  C335  1  0.40592752  0.58470324  0.42500000  1
  C  C336  1  0.39758896  0.57440598  0.40000000  1
  C  C337  1  0.38435701  0.55148758  0.45000000  1
  C  C338  1  0.37960860  0.53911754  0.42500000  1
  C  C339  1  0.37410644  0.51323195  0.42500000  1
  C  C340  1  0.37341299  0.50000000  0.40000000  1
  C  C341  1  0.37617922  0.47368108  0.45000000  1
  C  C342  1  0.37960860  0.46088246  0.42500000  1
  C  C343  1  0.39037243  0.43670649  0.42500000  1
  C  C344  1  0.39758896  0.42559402  0.40000000  1
  C  C345  1  0.41529676  0.40592752  0.45000000  1
  C  C346  1  0.42559402  0.39758896  0.42500000  1
  C  C347  1  0.44851242  0.38435701  0.42500000  1
  C  C348  1  0.46088246  0.37960860  0.40000000  1
  C  C349  1  0.48676805  0.37410644  0.45000000  1
  C  C350  1  0.50000000  0.37341299  0.42500000  1
  C  C351  1  0.52631892  0.37617922  0.42500000  1
  C  C352  1  0.53911754  0.37960860  0.40000000  1
  C  C353  1  0.56329351  0.39037243  0.45000000  1
  C  C354  1  0.57440598  0.39758896  0.42500000  1
  C  C355  1  0.59407248  0.41529676  0.42500000  1
  C  C356  1  0.60241104  0.42559402  0.40000000  1
  C  C357  1  0.61564299  0.44851242  0.45000000  1
  C  C358  1  0.62039140  0.46088246  0.42500000  1
  C  C359  1  0.62589356  0.48676805  0.42500000  1
  C  C360  1  0.62658701  0.50000000  0.45000000  1
  C  C361  1  0.62382078  0.52631892  0.45000000  1
  C  C362  1  0.62039140  0.53911754  0.47500000  1
  C  C363  1  0.60962757  0.56329351  0.47500000  1
  C  C364  1  0.60241104  0.57440598  0.45000000  1
  C  C365  1  0.58470324  0.59407248  0.50000000  1
  C  C366  1  0.57440598  0.60241104  0.47500000  1
  C  C367  1  0.55148758  0.61564299  0.47500000  1
  C  C368  1  0.53911754  0.62039140  0.45000000  1
  C  C369  1  0.51323195  0.62589356  0.50000000  1
  C  C370  1  0.50000000  0.62658701  0.47500000  1
  C  C371  1  0.47368108  0.62382078  0.47500000  1
  C  C372  1  0.46088246  0.62039140  0.45000000  1
  C  C373  1  0.43670649  0.60962757  0.50000000  1
  C  C374  1  0.42559402  0.60241104  0.47500000  1
  C  C375  1  0.40592752  0.58470324  0.47500000  1
  C  C376  1  0.39758896  0.57440598  0.45000000  1
  C  C377  1  0.38435701  0.55148758  0.50000000  1
  C  C378  1  0.37960860  0.53911754  0.47500000  1
  C  C379  1  0.37410644  0.51323195  0.47500000  1
  C  C380  1  0.37341299  0.50000000  0.45000000  1
  C  C381  1  0.37617922  0.47368108  0.50000000  1
  C  C382  1  0.37960860  0.46088246  0.47500000  1
  C  C383  1  0.39037243  0.43670649  0.47500000  1
  C  C384  1  0.39758896  0.42559402  0.45000000  1
  C  C385  1  0.41529676  0.40592752  0.50000000  1
  C  C386  1  0.42559402  0.39758896  0.47500000  1
  C  C387  1  0.44851242  0.38435701  0.47500000  1
  C  C388  1  0.46088246  0.37960860  0.45000000  1
  C  C389  1  0.48676805  0.37410644  0.50000000  1
  C  C390  1  0.50000000  0.37341299  0.47500000  1
  C  C391  1  0.52631892  0.37617922  0.47500000  1
  C  C392  1  0.53911754  0.37960860  0.45000000  1
  C  C393  1  0.56329351  0.39037243  0.50000000  1
  C  C394  1  0.57440598  0.39758896  0.47500000  1
  C  C395  1  0.59407248  0.41529676  0.47500000  1
  C  C396  1  0.60241104  0.42559402  0.45000000  1
  C  C397  1  0.61564299  0.44851242  0.50000000  1
  C  C398  1  0.62039140  0.46088246  0.47500000  1
  C  C399  1  0.62589356  0.48676805  0.47500000  1
  C  C400  1  0.62658701  0.50000000  0.50000000  1
  C  C401  1  0.62382078  0.52631892  0.50000000  1
  C  C402  1  0.62039140  0.53911754  0.52500000  1
  C  C403  1  0.60962757  0.56329351  0.52500000  1
  C  C404  1  0.60241104  0.57440598  0.50000000  1
  C  C405  1  0.58470324  0.59407248  0.55000000  1
  C  C406  1  0.57440598  0.60241104  0.52500000  1
  C  C407  1  0.55148758  0.61564299  0.52500000  1
  C  C408  1  0.53911754  0.62039140  0.50000000  1
  C  C409  1  0.51323195  0.62589356  0.55000000  1
  C  C410  1  0.50000000  0.62658701  0.52500000  1
  C  C411  1  0.47368108  0.62382078  0.52500000  1
  C  C412  1  0.46088246  0.62039140  0.50000000  1
  C  C413  1  0.43670649  0.60962757  0.55000000  1
  C  C414  1  0.42559402  0.60241104  0.52500000  1
  C  C415  1  0.40592752  0.58470324  0.52500000  1
  C  C416  1  0.39758896  0.57440598  0.50000000  1
  C  C417  1  0.38435701  0.55148758  0.55000000  1
  C  C418  1  0.37960860  0.53911754  0.52500000  1
  C  C419  1  0.37410644  0.51323195  0.52500000  1
  C  C420  1  0.37341299  0.50000000  0.50000000  1
  C  C421  1  0.37617922  0.47368108  0.55000000  1
  C  C422  1  0.37960860  0.46088246  0.52500000  1
  C  C423  1  0.39037243  0.43670649  0.52500000  1
  C  C424  1  0.39758896  0.42559402  0.50000000  1
  C  C425  1  0.41529676  0.40592752  0.55000000  1
  C  C426  1  0.42559402  0.39758896  0.52500000  1
  C  C427  1  0.44851242  0.38435701  0.52500000  1
  C  C428  1  0.46088246  0.37960860  0.50000000  1
  C  C429  1  0.48676805  0.37410644  0.55000000  1
  C  C430  1  0.50000000  0.37341299  0.52500000  1
  C  C431  1  0.52631892  0.37617922  0.52500000  1
  C  C432  1  0.53911754  0.37960860  0.50000000  1
  C  C433  1  0.56329351  0.39037243  0.55000000  1
  C  C434  1  0.57440598  0.39758896  0.52500000  1
  C  C435  1  0.59407248  0.41529676  0.52500000  1
  C  C436  1  0.60241104  0.42559402  0.50000000  1
  C  C437  1  0.61564299  0.44851242  0.55000000  1
  C  C438  1  0.62039140  0.46088246  0.52500000  1
  C  C439  1  0.62589356  0.48676805  0.52500000  1
  C  C440  1  0.62658701  0.50000000  0.55000000  1
  C  C441  1  0.62382078  0.52631892  0.55000000  1
  C  C442  1  0.62039140  0.53911754  0.57500000  1
  C  C443  1  0.60962757  0.56329351  0.57500000  1
  C  C444  1  0.60241104  0.57440598  0.55000000  1
  C  C445  1  0.58470324  0.59407248  0.60000000  1
  C  C446  1  0.57440598  0.60241104  0.57500000  1
  C  C447  1  0.55148758  0.61564299  0.57500000  1
  C  C448  1  0.53911754  0.62039140  0.55000000  1
  C  C449  1  0.51323195  0.62589356  0.60000000  1
  C  C450  1  0.50000000  0.62658701  0.57500000  1
  C  C451  1  0.47368108  0.62382078  0.57500000  1
  C  C452  1  0.46088246  0.62039140  0.55000000  1
  C  C453  1  0.43670649  0.60962757  0.60000000  1
  C  C454  1  0.42559402  0.60241104  0.57500000  1
  C  C455  1  0.40592752  0.58470324  0.57500000  1
  C  C456  1  0.39758896  0.57440598  0.55000000  1
  C  C457  1  0.38435701  0.55148758  0.60000000  1
  C  C458  1  0.37960860  0.53911754  0.57500000  1
  C  C459  1  0.37410644  0.51323195  0.57500000  1
  C  C460  1  0.37341299  0.50000000  0.55000000  1
  C  C461  1  0.37617922  0.47368108  0.60000000  1
  C  C462  1  0.37960860  0.46088246  0.57500000  1
  C  C463  1  0.39037243  0.43670649  0.57500000  1
  C  C464  1  0.39758896  0.42559402  0.55000000  1
  C  C465  1  0.41529676  0.40592752  0.60000000  1
  C  C466  1  0.42559402  0.39758896  0.57500000  1
  C  C467  1  0.44851242  0.38435701  0.57500000  1
  C  C468  1  0.46088246  0.37960860  0.55000000  1
  C  C469  1  0.48676805  0.37410644  0.60000000  1
  C  C470  1  0.50000000  0.37341299  0.57500000  1
  C  C471  1  0.52631892  0.37617922  0.57500000  1
  C  C472  1  0.53911754  0.37960860  0.55000000  1
  C  C473  1  0.56329351  0.39037243  0.60000000  1
  C  C474  1  0.57440598  0.39758896  0.57500000  1
  C  C475  1  0.59407248  0.41529676  0.57500000  1
  C  C476  1  0.60241104  0.42559402  0.55000000  1
  C  C477  1  0.61564299  0.44851242  0.60000000  1
  C  C478  1  0.62039140  0.46088246  0.57500000  1
  C  C479  1  0.62589356  0.48676805  0.57500000  1
  C  C480  1  0.62658701  0.50000000  0.60000000  1
  C  C481  1  0.62382078  0.52631892  0.60000000  1
  C  C482  1  0.62039140  0.53911754  0.62500000  1
  C  C483  1  0.60962757  0.56329351  0.62500000  1
  C  C484  1  0.60241104  0.57440598  0.60000000  1
  C  C485  1  0.58470324  0.59407248  0.65000000  1
  C  C486  1  0.57440598  0.60241104  0.62500000  1
  C  C487  1  0.55148758  0.61564299  0.62500000  1
  C  C488  1  0.53911754  0.62039140  0.60000000  1
  C  C489  1  0.51323195  0.62589356  0.65000000  1
  C  C490  1  0.50000000  0.62658701  0.62500000  1
  C  C491  1  0.47368108  0.62382078  0.62500000  1
  C  C492  1  0.46088246  0.62039140  0.60000000  1
  C  C493  1  0.43670649  0.60962757  0.65000000  1
  C  C494  1  0.42559402  0.60241104  0.62500000  1
  C  C495  1  0.40592752  0.58470324  0.62500000  1
  C  C496  1  0.39758896  0.57440598  0.60000000  1
  C  C497  1  0.38435701  0.55148758  0.65000000  1
  C  C498  1  0.37960860  0.53911754  0.62500000  1
  C  C499  1  0.37410644  0.51323195  0.62500000  1
  C  C500  1  0.37341299  0.50000000  0.60000000  1
  C  C501  1  0.37617922  0.47368108  0.65000000  1
  C  C502  1  0.37960860  0.46088246  0.62500000  1
  C  C503  1  0.39037243  0.43670649  0.62500000  1
  C  C504  1  0.39758896  0.42559402  0.60000000  1
  C  C505  1  0.41529676  0.40592752  0.65000000  1
  C  C506  1  0.42559402  0.39758896  0.62500000  1
  C  C507  1  0.44851242  0.38435701  0.62500000  1
  C  C508  1  0.46088246  0.37960860  0.60000000  1
  C  C509  1  0.48676805  0.37410644  0.65000000  1
  C  C510  1  0.50000000  0.37341299  0.62500000  1
  C  C511  1  0.52631892  0.37617922  0.62500000  1
  C  C512  1  0.53911754  0.37960860  0.60000000  1
  C  C513  1  0.56329351  0.39037243  0.65000000  1
  C  C514  1  0.57440598  0.39758896  0.62500000  1
  C  C515  1  0.59407248  0.41529676  0.62500000  1
  C  C516  1  0.60241104  0.42559402  0.60000000  1
  C  C517  1  0.61564299  0.44851242  0.65000000  1
  C  C518  1  0.62039140  0.46088246  0.62500000  1
  C  C519  1  0.62589356  0.48676805  0.62500000  1
  C  C520  1  0.62658701  0.50000000  0.65000000  1
  C  C521  1  0.62382078  0.52631892  0.65000000  1
  C  C522  1  0.62039140  0.53911754  0.67500000  1
  C  C523  1  0.60962757  0.56329351  0.67500000  1
  C  C524  1  0.60241104  0.57440598  0.65000000  1
  C  C525  1  0.58470324  0.59407248  0.70000000  1
  C  C526  1  0.57440598  0.60241104  0.67500000  1
  C  C527  1  0.55148758  0.61564299  0.67500000  1
  C  C528  1  0.53911754  0.62039140  0.65000000  1
  C  C529  1  0.51323195  0.62589356  0.70000000  1
  C  C530  1  0.50000000  0.62658701  0.67500000  1
  C  C531  1  0.47368108  0.62382078  0.67500000  1
  C  C532  1  0.46088246  0.62039140  0.65000000  1
  C  C533  1  0.43670649  0.60962757  0.70000000  1
  C  C534  1  0.42559402  0.60241104  0.67500000  1
  C  C535  1  0.40592752  0.58470324  0.67500000  1
  C  C536  1  0.39758896  0.57440598  0.65000000  1
  C  C537  1  0.38435701  0.55148758  0.70000000  1
  C  C538  1  0.37960860  0.53911754  0.67500000  1
  C  C539  1  0.37410644  0.51323195  0.67500000  1
  C  C540  1  0.37341299  0.50000000  0.65000000  1
  C  C541  1  0.37617922  0.47368108  0.70000000  1
  C  C542  1  0.37960860  0.46088246  0.67500000  1
  C  C543  1  0.39037243  0.43670649  0.67500000  1
  C  C544  1  0.39758896  0.42559402  0.65000000  1
  C  C545  1  0.41529676  0.40592752  0.70000000  1
  C  C546  1  0.42559402  0.39758896  0.67500000  1
  C  C547  1  0.44851242  0.38435701  0.67500000  1
  C  C548  1  0.46088246  0.37960860  0.65000000  1
  C  C549  1  0.48676805  0.37410644  0.70000000  1
  C  C550  1  0.50000000  0.37341299  0.67500000  1
  C  C551  1  0.52631892  0.37617922  0.67500000  1
  C  C552  1  0.53911754  0.37960860  0.65000000  1
  C  C553  1  0.56329351  0.39037243  0.70000000  1
  C  C554  1  0.57440598  0.39758896  0.67500000  1
  C  C555  1  0.59407248  0.41529676  0.67500000  1
  C  C556  1  0.60241104  0.42559402  0.65000000  1
  C  C557  1  0.61564299  0.44851242  0.70000000  1
  C  C558  1  0.62039140  0.46088246  0.67500000  1
  C  C559  1  0.62589356  0.48676805  0.67500000  1
  C  C560  1  0.62658701  0.50000000  0.70000000  1
  C  C561  1  0.62382078  0.52631892  0.70000000  1
  C  C562  1  0.62039140  0.53911754  0.72500000  1
  C  C563  1  0.60962757  0.56329351  0.72500000  1
  C  C564  1  0.60241104  0.57440598  0.70000000  1
  C  C565  1  0.58470324  0.59407248  0.75000000  1
  C  C566  1  0.57440598  0.60241104  0.72500000  1
  C  C567  1  0.55148758  0.61564299  0.72500000  1
  C  C568  1  0.53911754  0.62039140  0.70000000  1
  C  C569  1  0.51323195  0.62589356  0.75000000  1
  C  C570  1  0.50000000  0.62658701  0.72500000  1
  C  C571  1  0.47368108  0.62382078  0.72500000  1
  C  C572  1  0.46088246  0.62039140  0.70000000  1
  C  C573  1  0.43670649  0.60962757  0.75000000  1
  C  C574  1  0.42559402  0.60241104  0.72500000  1
  C  C575  1  0.40592752  0.58470324  0.72500000  1
  C  C576  1  0.39758896  0.57440598  0.70000000  1
  C  C577  1  0.38435701  0.55148758  0.75000000  1
  C  C578  1  0.37960860  0.53911754  0.72500000  1
  C  C579  1  0.37410644  0.51323195  0.72500000  1
  C  C580  1  0.37341299  0.50000000  0.70000000  1
  C  C581  1  0.37617922  0.47368108  0.75000000  1
  C  C582  1  0.37960860  0.46088246  0.72500000  1
  C  C583  1  0.39037243  0.43670649  0.72500000  1
  C  C584  1  0.39758896  0.42559402  0.70000000  1
  C  C585  1  0.41529676  0.40592752  0.75000000  1
  C  C586  1  0.42559402  0.39758896  0.72500000  1
  C  C587  1  0.44851242  0.38435701  0.72500000  1
  C  C588  1  0.46088246  0.37960860  0.70000000  1
  C  C589  1  0.48676805  0.37410644  0.75000000  1
  C  C590  1  0.50000000  0.37341299  0.72500000  1
  C  C591  1  0.52631892  0.37617922  0.72500000  1
  C  C592  1  0.53911754  0.37960860  0.70000000  1
  C  C593  1  0.56329351  0.39037243  0.75000000  1
  C  C594  1  0.57440598  0.39758896  0.72500000  1
  C  C595  1  0.59407248  0.41529676  0.72500000  1
  C  C596  1  0.60241104  0.42559402  0.70000000  1
  C  C597  1  0.61564299  0.44851242  0.75000000  1
  C  C598  1  0.62039140  0.46088246  0.72500000  1
  C  C599  1  0.62589356  0.48676805  0.72500000  1
  C  C600  1  0.62658701  0.50000000  0.75000000  1
  C  C601  1  0.62382078  0.52631892  0.75000000  1
  C  C602  1  0.62039140  0.53911754  0.77500000  1
  C  C603  1  0.60962757  0.56329351  0.77500000  1
  C  C604  1  0.60241104  0.57440598  0.75000000  1
  C  C605  1  0.58470324  0.59407248  0.80000000  1
  C  C606  1  0.57440598  0.60241104  0.77500000  1
  C  C607  1  0.55148758  0.61564299  0.77500000  1
  C  C608  1  0.53911754  0.62039140  0.75000000  1
  C  C609  1  0.51323195  0.62589356  0.80000000  1
  C  C610  1  0.50000000  0.62658701  0.77500000  1
  C  C611  1  0.47368108  0.62382078  0.77500000  1
  C  C612  1  0.46088246  0.62039140  0.75000000  1
  C  C613  1  0.43670649  0.60962757  0.80000000  1
  C  C614  1  0.42559402  0.60241104  0.77500000  1
  C  C615  1  0.40592752  0.58470324  0.77500000  1
  C  C616  1  0.39758896  0.57440598  0.75000000  1
  C  C617  1  0.38435701  0.55148758  0.80000000  1
  C  C618  1  0.37960860  0.53911754  0.77500000  1
  C  C619  1  0.37410644  0.51323195  0.77500000  1
  C  C620  1  0.37341299  0.50000000  0.75000000  1
  C  C621  1  0.37617922  0.47368108  0.80000000  1
  C  C622  1  0.37960860  0.46088246  0.77500000  1
  C  C623  1  0.39037243  0.43670649  0.77500000  1
  C  C624  1  0.39758896  0.42559402  0.75000000  1
  C  C625  1  0.41529676  0.40592752  0.80000000  1
  C  C626  1  0.42559402  0.39758896  0.77500000  1
  C  C627  1  0.44851242  0.38435701  0.77500000  1
  C  C628  1  0.46088246  0.37960860  0.75000000  1
  C  C629  1  0.48676805  0.37410644  0.80000000  1
  C  C630  1  0.50000000  0.37341299  0.77500000  1
  C  C631  1  0.52631892  0.37617922  0.77500000  1
  C  C632  1  0.53911754  0.37960860  0.75000000  1
  C  C633  1  0.56329351  0.39037243  0.80000000  1
  C  C634  1  0.57440598  0.39758896  0.77500000  1
  C  C635  1  0.59407248  0.41529676  0.77500000  1
  C  C636  1  0.60241104  0.42559402  0.75000000  1
  C  C637  1  0.61564299  0.44851242  0.80000000  1
  C  C638  1  0.62039140  0.46088246  0.77500000  1
  C  C639  1  0.62589356  0.48676805  0.77500000  1
  C  C640  1  0.62658701  0.50000000  0.80000000  1
  C  C641  1  0.62382078  0.52631892  0.80000000  1
  C  C642  1  0.62039140  0.53911754  0.82500000  1
  C  C643  1  0.60962757  0.56329351  0.82500000  1
  C  C644  1  0.60241104  0.57440598  0.80000000  1
  C  C645  1  0.58470324  0.59407248  0.85000000  1
  C  C646  1  0.57440598  0.60241104  0.82500000  1
  C  C647  1  0.55148758  0.61564299  0.82500000  1
  C  C648  1  0.53911754  0.62039140  0.80000000  1
  C  C649  1  0.51323195  0.62589356  0.85000000  1
  C  C650  1  0.50000000  0.62658701  0.82500000  1
  C  C651  1  0.47368108  0.62382078  0.82500000  1
  C  C652  1  0.46088246  0.62039140  0.80000000  1
  C  C653  1  0.43670649  0.60962757  0.85000000  1
  C  C654  1  0.42559402  0.60241104  0.82500000  1
  C  C655  1  0.40592752  0.58470324  0.82500000  1
  C  C656  1  0.39758896  0.57440598  0.80000000  1
  C  C657  1  0.38435701  0.55148758  0.85000000  1
  C  C658  1  0.37960860  0.53911754  0.82500000  1
  C  C659  1  0.37410644  0.51323195  0.82500000  1
  C  C660  1  0.37341299  0.50000000  0.80000000  1
  C  C661  1  0.37617922  0.47368108  0.85000000  1
  C  C662  1  0.37960860  0.46088246  0.82500000  1
  C  C663  1  0.39037243  0.43670649  0.82500000  1
  C  C664  1  0.39758896  0.42559402  0.80000000  1
  C  C665  1  0.41529676  0.40592752  0.85000000  1
  C  C666  1  0.42559402  0.39758896  0.82500000  1
  C  C667  1  0.44851242  0.38435701  0.82500000  1
  C  C668  1  0.46088246  0.37960860  0.80000000  1
  C  C669  1  0.48676805  0.37410644  0.85000000  1
  C  C670  1  0.50000000  0.37341299  0.82500000  1
  C  C671  1  0.52631892  0.37617922  0.82500000  1
  C  C672  1  0.53911754  0.37960860  0.80000000  1
  C  C673  1  0.56329351  0.39037243  0.85000000  1
  C  C674  1  0.57440598  0.39758896  0.82500000  1
  C  C675  1  0.59407248  0.41529676  0.82500000  1
  C  C676  1  0.60241104  0.42559402  0.80000000  1
  C  C677  1  0.61564299  0.44851242  0.85000000  1
  C  C678  1  0.62039140  0.46088246  0.82500000  1
  C  C679  1  0.62589356  0.48676805  0.82500000  1
  C  C680  1  0.62658701  0.50000000  0.85000000  1
  C  C681  1  0.62382078  0.52631892  0.85000000  1
  C  C682  1  0.62039140  0.53911754  0.87500000  1
  C  C683  1  0.60962757  0.56329351  0.87500000  1
  C  C684  1  0.60241104  0.57440598  0.85000000  1
  C  C685  1  0.58470324  0.59407248  0.90000000  1
  C  C686  1  0.57440598  0.60241104  0.87500000  1
  C  C687  1  0.55148758  0.61564299  0.87500000  1
  C  C688  1  0.53911754  0.62039140  0.85000000  1
  C  C689  1  0.51323195  0.62589356  0.90000000  1
  C  C690  1  0.50000000  0.62658701  0.87500000  1
  C  C691  1  0.47368108  0.62382078  0.87500000  1
  C  C692  1  0.46088246  0.62039140  0.85000000  1
  C  C693  1  0.43670649  0.60962757  0.90000000  1
  C  C694  1  0.42559402  0.60241104  0.87500000  1
  C  C695  1  0.40592752  0.58470324  0.87500000  1
  C  C696  1  0.39758896  0.57440598  0.85000000  1
  C  C697  1  0.38435701  0.55148758  0.90000000  1
  C  C698  1  0.37960860  0.53911754  0.87500000  1
  C  C699  1  0.37410644  0.51323195  0.87500000  1
  C  C700  1  0.37341299  0.50000000  0.85000000  1
  C  C701  1  0.37617922  0.47368108  0.90000000  1
  C  C702  1  0.37960860  0.46088246  0.87500000  1
  C  C703  1  0.39037243  0.43670649  0.87500000  1
  C  C704  1  0.39758896  0.42559402  0.85000000  1
  C  C705  1  0.41529676  0.40592752  0.90000000  1
  C  C706  1  0.42559402  0.39758896  0.87500000  1
  C  C707  1  0.44851242  0.38435701  0.87500000  1
  C  C708  1  0.46088246  0.37960860  0.85000000  1
  C  C709  1  0.48676805  0.37410644  0.90000000  1
  C  C710  1  0.50000000  0.37341299  0.87500000  1
  C  C711  1  0.52631892  0.37617922  0.87500000  1
  C  C712  1  0.53911754  0.37960860  0.85000000  1
  C  C713  1  0.56329351  0.39037243  0.90000000  1
  C  C714  1  0.57440598  0.39758896  0.87500000  1
  C  C715  1  0.59407248  0.41529676  0.87500000  1
  C  C716  1  0.60241104  0.42559402  0.85000000  1
  C  C717  1  0.61564299  0.44851242  0.90000000  1
  C  C718  1  0.62039140  0.46088246  0.87500000  1
  C  C719  1  0.62589356  0.48676805  0.87500000  1
  C  C720  1  0.62658701  0.50000000  0.90000000  1
  C  C721  1  0.62382078  0.52631892  0.90000000  1
  C  C722  1  0.62039140  0.53911754  0.92500000  1
  C  C723  1  0.60962757  0.56329351  0.92500000  1
  C  C724  1  0.60241104  0.57440598  0.90000000  1
  C  C725  1  0.58470324  0.59407248  0.95000000  1
  C  C726  1  0.57440598  0.60241104  0.92500000  1
  C  C727  1  0.55148758  0.61564299  0.92500000  1
  C  C728  1  0.53911754  0.62039140  0.90000000  1
  C  C729  1  0.51323195  0.62589356  0.95000000  1
  C  C730  1  0.50000000  0.62658701  0.92500000  1
  C  C731  1  0.47368108  0.62382078  0.92500000  1
  C  C732  1  0.46088246  0.62039140  0.90000000  1
  C  C733  1  0.43670649  0.60962757  0.95000000  1
  C  C734  1  0.42559402  0.60241104  0.92500000  1
  C  C735  1  0.40592752  0.58470324  0.92500000  1
  C  C736  1  0.39758896  0.57440598  0.90000000  1
  C  C737  1  0.38435701  0.55148758  0.95000000  1
  C  C738  1  0.37960860  0.53911754  0.92500000  1
  C  C739  1  0.37410644  0.51323195  0.92500000  1
  C  C740  1  0.37341299  0.50000000  0.90000000  1
  C  C741  1  0.37617922  0.47368108  0.95000000  1
  C  C742  1  0.37960860  0.46088246  0.92500000  1
  C  C743  1  0.39037243  0.43670649  0.92500000  1
  C  C744  1  0.39758896  0.42559402  0.90000000  1
  C  C745  1  0.41529676  0.40592752  0.95000000  1
  C  C746  1  0.42559402  0.39758896  0.92500000  1
  C  C747  1  0.44851242  0.38435701  0.92500000  1
  C  C748  1  0.46088246  0.37960860  0.90000000  1
  C  C749  1  0.48676805  0.37410644  0.95000000  1
  C  C750  1  0.50000000  0.37341299  0.92500000  1
  C  C751  1  0.52631892  0.37617922  0.92500000  1
  C  C752  1  0.53911754  0.37960860  0.90000000  1
  C  C753  1  0.56329351  0.39037243  0.95000000  1
  C  C754  1  0.57440598  0.39758896  0.92500000  1
  C  C755  1  0.59407248  0.41529676  0.92500000  1
  C  C756  1  0.60241104  0.42559402  0.90000000  1
  C  C757  1  0.61564299  0.44851242  0.95000000  1
  C  C758  1  0.62039140  0.46088246  0.92500000  1
  C  C759  1  0.62589356  0.48676805  0.92500000  1
  C  C760  1  0.62658701  0.50000000  0.95000000  1
  C  C761  1  0.62382078  0.52631892  0.95000000  1
  C  C762  1  0.62039140  0.53911754  0.97500000  1
  C  C763  1  0.60962757  0.56329351  0.97500000  1
  C  C764  1  0.60241104  0.57440598  0.95000000  1
  C  C765  1  0.58470324  0.59407248  1.00000000  1
  C  C766  1  0.57440598  0.60241104  0.97500000  1
  C  C767  1  0.55148758  0.61564299  0.97500000  1
  C  C768  1  0.53911754  0.62039140  0.95000000  1
  C  C769  1  0.51323195  0.62589356  1.00000000  1
  C  C770  1  0.50000000  0.62658701  0.97500000  1
  C  C771  1  0.47368108  0.62382078  0.97500000  1
  C  C772  1  0.46088246  0.62039140  0.95000000  1
  C  C773  1  0.43670649  0.60962757  1.00000000  1
  C  C774  1  0.42559402  0.60241104  0.97500000  1
  C  C775  1  0.40592752  0.58470324  0.97500000  1
  C  C776  1  0.39758896  0.57440598  0.95000000  1
  C  C777  1  0.38435701  0.55148758  1.00000000  1
  C  C778  1  0.37960860  0.53911754  0.97500000  1
  C  C779  1  0.37410644  0.51323195  0.97500000  1
  C  C780  1  0.37341299  0.50000000  0.95000000  1
  C  C781  1  0.37617922  0.47368108  1.00000000  1
  C  C782  1  0.37960860  0.46088246  0.97500000  1
  C  C783  1  0.39037243  0.43670649  0.97500000  1
  C  C784  1  0.39758896  0.42559402  0.95000000  1
  C  C785  1  0.41529676  0.40592752  1.00000000  1
  C  C786  1  0.42559402  0.39758896  0.97500000  1
  C  C787  1  0.44851242  0.38435701  0.97500000  1
  C  C788  1  0.46088246  0.37960860  0.95000000  1
  C  C789  1  0.48676805  0.37410644  1.00000000  1
  C  C790  1  0.50000000  0.37341299  0.97500000  1
  C  C791  1  0.52631892  0.37617922  0.97500000  1
  C  C792  1  0.53911754  0.37960860  0.95000000  1
  C  C793  1  0.56329351  0.39037243  1.00000000  1
  C  C794  1  0.57440598  0.39758896  0.97500000  1
  C  C795  1  0.59407248  0.41529676  0.97500000  1
  C  C796  1  0.60241104  0.42559402  0.95000000  1
  C  C797  1  0.61564299  0.44851242  1.00000000  1
  C  C798  1  0.62039140  0.46088246  0.97500000  1
  C  C799  1  0.62589356  0.48676805  0.97500000  1
